Version 4.1
SHEET 1 2572 852
WIRE 928 -224 624 -224
WIRE 1024 -224 1008 -224
WIRE 1200 -224 1024 -224
WIRE 1232 -224 1200 -224
WIRE 800 -144 624 -144
WIRE 896 -144 880 -144
WIRE 1184 -144 896 -144
WIRE 1232 -144 1184 -144
WIRE 672 -64 624 -64
WIRE 768 -64 752 -64
WIRE 1168 -64 768 -64
WIRE 1232 -64 1168 -64
WIRE 1200 0 1200 -224
WIRE 1216 0 1200 0
WIRE 1312 0 1280 0
WIRE 1312 16 1312 0
WIRE 1312 32 1296 32
WIRE 1504 32 1376 32
WIRE 1728 32 1600 32
WIRE 1888 32 1728 32
WIRE 2016 32 1888 32
WIRE 2112 32 2096 32
WIRE 2144 32 2112 32
WIRE 544 48 512 48
WIRE 576 48 544 48
WIRE 688 48 688 -16
WIRE 688 48 656 48
WIRE 816 48 816 -96
WIRE 816 48 688 48
WIRE 944 48 944 -176
WIRE 944 48 816 48
WIRE 1184 48 1184 -144
WIRE 1216 48 1184 48
WIRE 1312 48 1280 48
WIRE 1888 48 1888 32
WIRE 1296 64 1296 32
WIRE 1312 64 1296 64
WIRE 688 80 688 48
WIRE 544 96 544 48
WIRE 1168 96 1168 -64
WIRE 1216 96 1168 96
WIRE 1312 96 1312 80
WIRE 1312 96 1280 96
WIRE 1296 112 1296 64
WIRE 1312 112 1296 112
WIRE 1328 112 1328 80
WIRE 1328 112 1312 112
WIRE 1504 128 1504 112
WIRE 2032 128 2032 80
WIRE 2288 128 2032 128
WIRE 1888 160 1888 128
WIRE 544 208 544 176
WIRE 1728 240 1728 32
WIRE 1760 240 1728 240
WIRE 688 256 688 224
WIRE 1760 256 1744 256
WIRE 1920 256 1824 256
WIRE 2096 256 1984 256
WIRE 2144 256 2096 256
WIRE 2272 256 2224 256
WIRE 2288 256 2288 128
WIRE 2288 256 2272 256
WIRE 1760 272 1712 272
WIRE 1744 288 1744 256
WIRE 1760 288 1744 288
WIRE 2096 288 2096 256
WIRE 1760 304 1696 304
WIRE 1744 320 1744 288
WIRE 1776 320 1776 304
WIRE 1776 320 1744 320
WIRE 1616 336 1536 336
WIRE 1696 336 1696 304
WIRE 1696 336 1680 336
WIRE 1776 336 1776 320
WIRE 1616 368 1536 368
WIRE 2272 368 2272 320
WIRE 2096 416 2096 368
WIRE 1728 464 1728 240
WIRE 1760 464 1728 464
WIRE 1760 480 1744 480
WIRE 1920 480 1824 480
WIRE 1984 480 1984 256
WIRE 1760 496 1712 496
WIRE 1744 512 1744 480
WIRE 1760 512 1744 512
WIRE 1760 528 1696 528
WIRE 1744 544 1744 512
WIRE 1776 544 1776 528
WIRE 1776 544 1744 544
WIRE 1616 560 1536 560
WIRE 1696 560 1696 528
WIRE 1696 560 1680 560
WIRE 1776 560 1776 544
WIRE 2144 576 2080 576
WIRE 2272 576 2224 576
WIRE 2368 576 2336 576
WIRE 1616 592 1536 592
WIRE 1728 656 1728 464
WIRE 1760 656 1728 656
WIRE 1760 672 1744 672
WIRE 1920 672 1824 672
WIRE 1984 672 1984 480
WIRE 2080 672 2080 576
WIRE 2080 672 1984 672
WIRE 2208 672 2080 672
WIRE 2368 672 2368 576
WIRE 2368 672 2288 672
WIRE 2384 672 2368 672
WIRE 2480 672 2384 672
WIRE 1760 688 1712 688
WIRE 1744 704 1744 672
WIRE 1760 704 1744 704
WIRE 2080 704 2080 672
WIRE 1760 720 1696 720
WIRE 1744 736 1744 704
WIRE 1776 736 1776 720
WIRE 1776 736 1744 736
WIRE 1616 752 1536 752
WIRE 1696 752 1696 720
WIRE 1696 752 1680 752
WIRE 1776 752 1776 736
WIRE 2384 752 2384 672
WIRE 1616 784 1536 784
WIRE 2080 832 2080 784
WIRE 2384 832 2384 816
FLAG 624 -224 Umbilical_gate_control_logic_output
FLAG 624 -144 BATT_1_gate_control_logic_output
FLAG 624 -64 BATT_2_gate_control_signal_logic_output
FLAG 1536 336 UMBILICAL
FLAG 1536 368 BUCK_RAIL
FLAG 1712 272 Umbilical_gate_control_signal
FLAG 1776 336 0
FLAG 1536 592 BUCK_RAIL
FLAG 1776 560 0
FLAG 1536 784 BUCK_RAIL
FLAG 1776 752 0
FLAG 688 256 0
FLAG 1232 -224 Umbilical_gate_control_signal
FLAG 1232 -144 BATT_1_gate_control_signal
FLAG 1232 -64 BATT_2_gate_control_signal
FLAG 2144 32 gate_drive_switch_signal
FLAG 512 48 gate_drive_switch_signal
FLAG 2096 416 0
FLAG 544 208 0
FLAG 1536 560 BATT_1
FLAG 1536 752 BATT_2
FLAG 1312 112 0
FLAG 1504 128 0
FLAG 2384 832 0
FLAG 2080 832 0
FLAG 2480 672 RESET
FLAG 1504 80 RESET
FLAG 1712 496 BATT_1_gate_control_signal
FLAG 1712 688 BATT_2_gate_control_signal
FLAG 1888 160 0
FLAG 2272 368 0
SYMBOL Digital\\and 1344 -16 R0
WINDOW 3 -71 -7 Left 1
SYMATTR Value Vhigh = 5, Td = 33n
SYMATTR InstName A1
SYMBOL Digital\\and 1792 208 R0
WINDOW 3 0 103 Left 1
SYMATTR Value Vhigh = 5, Td = 33n
SYMATTR InstName A2
SYMBOL Digital\\diffschmitt 1616 288 R0
WINDOW 3 1 111 Right 1
SYMATTR Value Trise=1u, Vhigh = 5, Vt = 0.05, Vh = 0.075, Td = 10n
SYMATTR InstName A3
SYMBOL schottky 1920 272 R270
WINDOW 0 32 32 VTop 2
WINDOW 3 0 32 VBottom 2
SYMATTR InstName D1
SYMBOL Digital\\and 1792 432 R0
WINDOW 3 0 103 Left 1
SYMATTR Value Vhigh = 5, Td = 33n
SYMATTR InstName A4
SYMBOL Digital\\diffschmitt 1616 512 R0
WINDOW 3 1 111 Right 1
SYMATTR Value Trise=1u, Vhigh = 5, Vt = 0.05, Vh = 0.075, Td = 10n
SYMATTR InstName A5
SYMBOL schottky 1920 496 R270
WINDOW 0 32 32 VTop 2
WINDOW 3 0 32 VBottom 2
SYMATTR InstName D2
SYMBOL Digital\\and 1792 624 R0
WINDOW 3 0 103 Left 1
SYMATTR Value Vhigh = 5, Td = 33n
SYMATTR InstName A6
SYMBOL Digital\\diffschmitt 1616 704 R0
WINDOW 3 1 111 Right 1
SYMATTR Value Trise=1u, Vhigh = 5, Vt = 0.05, Vh = 0.075, Td = 10n
SYMATTR InstName A7
SYMBOL schottky 1920 688 R270
WINDOW 0 32 32 VTop 2
WINDOW 3 0 32 VBottom 2
SYMATTR InstName D3
SYMBOL cap 672 160 R0
WINDOW 3 51 50 Left 2
SYMATTR Value 9n
SYMATTR InstName C1
SYMBOL res 2128 272 R270
WINDOW 0 32 56 VTop 2
WINDOW 3 0 56 VBottom 2
SYMATTR InstName R1
SYMATTR Value 250
SYMBOL res 528 80 R0
SYMATTR InstName R2
SYMATTR Value 1000
SYMBOL pmos 2112 80 M270
SYMATTR InstName M1
SYMATTR Value AO6407
SYMBOL res 2080 272 R0
SYMATTR InstName R3
SYMATTR Value 5000
SYMBOL pmos 768 -16 M270
SYMATTR InstName M2
SYMATTR Value Si1555DL_P
SYMBOL Digital\\inv 1216 -64 R0
WINDOW 3 -145 57 Left 0
SYMATTR Value Vhigh = 5, Td = 33n
SYMATTR InstName A8
SYMBOL Digital\\inv 1216 -16 R0
WINDOW 3 -144 56 Left 0
SYMATTR Value Vhigh = 5, Td = 33n
SYMATTR InstName A9
SYMBOL Digital\\inv 1216 32 R0
WINDOW 0 4 34 Left 2
WINDOW 3 -143 53 Left 0
SYMATTR InstName A10
SYMATTR Value Vhigh = 5, Td = 33n
SYMBOL pmos 896 -96 M270
SYMATTR InstName M3
SYMATTR Value Si1555DL_P
SYMBOL pmos 1024 -176 M270
SYMATTR InstName M4
SYMATTR Value Si1555DL_P
SYMBOL Digital\\srflop 1552 -16 R0
WINDOW 3 -40 28 Left 2
SYMATTR Value Vhigh = 5
SYMATTR InstName A11
SYMBOL cap 2368 752 R0
SYMATTR InstName C2
SYMATTR Value 40n
SYMBOL res 2064 688 R0
SYMATTR InstName R4
SYMATTR Value 10000
SYMBOL res 2304 656 R90
WINDOW 0 0 56 VBottom 2
WINDOW 3 32 56 VTop 2
SYMATTR InstName R5
SYMATTR Value 10000
SYMBOL schottky 2336 592 M270
WINDOW 0 32 32 VTop 2
WINDOW 3 0 32 VBottom 2
SYMATTR InstName D4
SYMBOL res 2240 560 R90
WINDOW 0 0 56 VBottom 2
WINDOW 3 32 56 VTop 2
SYMATTR InstName R6
SYMATTR Value 250
SYMBOL res 704 176 R180
WINDOW 0 36 76 Left 2
WINDOW 3 36 40 Left 2
SYMATTR InstName R7
SYMATTR Value 250
SYMBOL res 672 32 R90
WINDOW 0 0 56 VBottom 2
WINDOW 3 32 56 VTop 2
SYMATTR InstName R8
SYMATTR Value 250
SYMBOL res 1872 32 R0
SYMATTR InstName R9
SYMATTR Value 10000
SYMBOL cap 2256 256 R0
SYMATTR InstName C3
SYMATTR Value 1n
