* E:\Outpost Vault\Outpost Door\Outpost Quick Access\Projects\1) Major Projects\Work for SOAR\PMB REV 2\Code\SOAR_PMB_Rev_2\SPICE SIMS\Draft3.asc
* Generated by LTspice 24.1.4 for Windows.
.tran 1
.backanno
.end
