Version 4.1
SHEET 1 880 680
WIRE 176 208 48 208
WIRE 368 208 240 208
WIRE 368 224 352 224
WIRE 544 224 432 224
WIRE 48 240 48 208
WIRE 352 240 352 224
WIRE 368 240 352 240
WIRE 352 256 352 240
WIRE 368 256 352 256
WIRE 352 272 352 256
WIRE 368 272 352 272
WIRE 352 288 352 272
WIRE 384 288 384 272
WIRE 384 288 352 288
WIRE 48 384 48 320
FLAG 48 384 0
FLAG 384 288 0
SYMBOL voltage 48 224 R0
WINDOW 123 0 0 Left 0
WINDOW 39 0 0 Left 0
SYMATTR InstName V1
SYMATTR Value PULSE(0 5 0 10m 10m 20m 1 1)
SYMBOL Digital\\or 400 176 R0
WINDOW 0 -2 23 Left 2
WINDOW 3 -80 20 Left 0
SYMATTR InstName A2
SYMATTR Value Vhigh = 5, Vlow = 0.1V, Td = 3.5n, Trise = 2.5n, Tfall = 2.5n
SYMBOL Digital\\schmtbuf 176 144 R0
WINDOW 0 33 52 Left 0
WINDOW 3 14 42 Left 0
SYMATTR InstName A3
SYMATTR Value Vhigh = 4.9, Vlow = 0.1, Vt = 2.5, Vh =1
TEXT 8 408 Left 2 !.tran 60m
