Version 4.1
SHEET 1 6760 2756
WIRE -912 -1024 -944 -1024
WIRE 912 -1008 848 -1008
WIRE 1200 -1008 1136 -1008
WIRE -2288 -992 -2992 -992
WIRE -2144 -992 -2208 -992
WIRE -912 -992 -912 -1024
WIRE -976 -944 -1008 -944
WIRE -832 -944 -848 -944
WIRE -400 -944 -832 -944
WIRE -272 -944 -320 -944
WIRE 2496 -944 2160 -944
WIRE 2672 -944 2576 -944
WIRE 2864 -944 2768 -944
WIRE 2896 -944 2864 -944
WIRE 3120 -944 2992 -944
WIRE 3696 -944 3600 -944
WIRE 3856 -944 3776 -944
WIRE 3872 -944 3856 -944
WIRE 3968 -944 3952 -944
WIRE 4048 -944 3968 -944
WIRE 4128 -944 4048 -944
WIRE 4224 -944 4128 -944
WIRE 912 -928 896 -928
WIRE 1184 -928 1136 -928
WIRE 1296 -928 1184 -928
WIRE 1184 -912 1184 -928
WIRE -976 -896 -1008 -896
WIRE 2896 -896 2752 -896
WIRE 2912 -896 2896 -896
WIRE -832 -864 -832 -944
WIRE -800 -864 -832 -864
WIRE -640 -864 -688 -864
WIRE -608 -864 -640 -864
WIRE 2896 -864 2896 -896
WIRE 3008 -864 2896 -864
WIRE 912 -848 848 -848
WIRE 1152 -848 1136 -848
WIRE -2288 -832 -2656 -832
WIRE -2144 -832 -2208 -832
WIRE 2560 -832 2416 -832
WIRE 2752 -832 2624 -832
WIRE -912 -816 -944 -816
WIRE 1152 -816 1152 -848
WIRE 1184 -816 1184 -832
WIRE 1184 -816 1152 -816
WIRE 3008 -816 3008 -864
WIRE 3024 -816 3008 -816
WIRE 848 -800 848 -848
WIRE 1184 -800 1184 -816
WIRE 3856 -800 3856 -944
WIRE -912 -784 -912 -816
WIRE -608 -784 -608 -864
WIRE -576 -784 -608 -784
WIRE -400 -784 -448 -784
WIRE -272 -784 -320 -784
WIRE -576 -752 -608 -752
WIRE 2288 -752 2224 -752
WIRE 2416 -752 2416 -832
WIRE 2416 -752 2368 -752
WIRE 2448 -752 2416 -752
WIRE 2752 -752 2752 -832
WIRE 2752 -752 2736 -752
WIRE 2864 -752 2864 -944
WIRE 2864 -752 2816 -752
WIRE 3968 -752 3968 -944
WIRE 4048 -752 4048 -944
WIRE 4128 -752 4128 -944
WIRE 4224 -752 4224 -944
WIRE -976 -736 -1008 -736
WIRE -832 -736 -848 -736
WIRE -608 -736 -608 -752
WIRE -608 -736 -832 -736
WIRE -608 -720 -608 -736
WIRE -576 -720 -608 -720
WIRE -2256 -704 -2304 -704
WIRE -2144 -704 -2176 -704
WIRE 848 -704 848 -720
WIRE 1184 -704 1184 -720
WIRE -976 -688 -1008 -688
WIRE -608 -688 -608 -720
WIRE -576 -688 -608 -688
WIRE 2448 -672 2368 -672
WIRE 2832 -672 2736 -672
WIRE -2992 -656 -2992 -992
WIRE -832 -656 -832 -736
WIRE -800 -656 -832 -656
WIRE -656 -656 -688 -656
WIRE -608 -656 -608 -688
WIRE -576 -656 -608 -656
WIRE -2656 -640 -2656 -832
WIRE -2304 -640 -2304 -704
WIRE 3856 -624 3856 -720
WIRE 3968 -624 3968 -688
WIRE 4048 -624 4048 -688
WIRE 4128 -624 4128 -688
WIRE 4224 -624 4224 -688
WIRE -912 -608 -944 -608
WIRE 928 -592 864 -592
WIRE 1216 -592 1152 -592
WIRE 2352 -592 2320 -592
WIRE 2448 -592 2432 -592
WIRE 3008 -592 3008 -816
WIRE 3008 -592 2736 -592
WIRE -912 -576 -912 -608
WIRE -640 -576 -640 -864
WIRE -576 -576 -640 -576
WIRE -400 -576 -448 -576
WIRE -272 -576 -320 -576
WIRE 3008 -576 3008 -592
WIRE 2320 -560 2320 -592
WIRE -656 -544 -656 -656
WIRE -576 -544 -656 -544
WIRE -976 -528 -1008 -528
WIRE -656 -528 -848 -528
WIRE -2992 -512 -2992 -576
WIRE -2656 -512 -2656 -560
WIRE -2304 -512 -2304 -560
WIRE -656 -512 -656 -528
WIRE -608 -512 -656 -512
WIRE -576 -512 -608 -512
WIRE 928 -512 912 -512
WIRE 1200 -512 1152 -512
WIRE 1312 -512 1200 -512
WIRE 2352 -512 2224 -512
WIRE 2448 -512 2352 -512
WIRE 2832 -512 2736 -512
WIRE 2864 -512 2864 -752
WIRE 2864 -512 2832 -512
WIRE 1200 -496 1200 -512
WIRE 2352 -496 2352 -512
WIRE 2832 -496 2832 -512
WIRE -976 -480 -1008 -480
WIRE -608 -480 -608 -512
WIRE -576 -480 -608 -480
WIRE -608 -448 -608 -480
WIRE -576 -448 -608 -448
WIRE 3008 -448 3008 -496
WIRE 928 -432 864 -432
WIRE 1168 -432 1152 -432
WIRE 4176 -432 4176 -464
WIRE 1168 -400 1168 -432
WIRE 1200 -400 1200 -416
WIRE 1200 -400 1168 -400
WIRE 864 -384 864 -432
WIRE 1200 -384 1200 -400
WIRE 2352 -384 2352 -432
WIRE 2592 -384 2592 -464
WIRE 2832 -384 2832 -432
WIRE -1072 -320 -1120 -320
WIRE -960 -320 -992 -320
WIRE -816 -320 -960 -320
WIRE -768 -320 -816 -320
WIRE 4176 -304 4176 -352
WIRE -960 -288 -960 -320
WIRE -816 -288 -816 -320
WIRE 864 -288 864 -304
WIRE 1200 -288 1200 -304
WIRE -2864 -224 -2992 -224
WIRE -2752 -224 -2800 -224
WIRE -816 -208 -816 -224
WIRE -960 -192 -960 -208
WIRE 2480 -160 2112 -160
WIRE 2624 -160 2560 -160
WIRE 2816 -160 2720 -160
WIRE 2848 -160 2816 -160
WIRE 3072 -160 2944 -160
WIRE -2864 -144 -2992 -144
WIRE -2752 -144 -2752 -224
WIRE -2752 -144 -2800 -144
WIRE -2592 -144 -2752 -144
WIRE -2560 -144 -2592 -144
WIRE -2272 -144 -2304 -144
WIRE -2208 -144 -2272 -144
WIRE -2160 -144 -2208 -144
WIRE -2016 -144 -2080 -144
WIRE -1712 -144 -1744 -144
WIRE 928 -144 864 -144
WIRE 1216 -144 1152 -144
WIRE -2208 -128 -2208 -144
WIRE 2864 -112 2704 -112
WIRE -1744 -96 -1744 -144
WIRE -1056 -80 -1120 -80
WIRE -944 -80 -976 -80
WIRE -816 -80 -944 -80
WIRE -768 -80 -816 -80
WIRE -2864 -64 -2992 -64
WIRE -2752 -64 -2752 -144
WIRE -2752 -64 -2800 -64
WIRE 928 -64 912 -64
WIRE 1200 -64 1152 -64
WIRE 1312 -64 1200 -64
WIRE -2592 -48 -2592 -144
WIRE -2560 -48 -2592 -48
WIRE -944 -48 -944 -80
WIRE 1200 -48 1200 -64
WIRE 2512 -48 2368 -48
WIRE 2704 -48 2576 -48
WIRE -2208 -32 -2208 -64
WIRE -816 -32 -816 -80
WIRE 2864 -32 2864 -112
WIRE 2880 -32 2864 -32
WIRE 3568 -16 3520 -16
WIRE 3632 -16 3568 -16
WIRE 3968 -16 3712 -16
WIRE 4048 -16 3968 -16
WIRE 928 16 864 16
WIRE 1168 16 1152 16
WIRE 2240 32 2176 32
WIRE 2368 32 2368 -48
WIRE 2368 32 2320 32
WIRE 2400 32 2368 32
WIRE 2704 32 2704 -48
WIRE 2704 32 2688 32
WIRE 2816 32 2816 -160
WIRE 2816 32 2768 32
WIRE -2640 48 -2672 48
WIRE -2560 48 -2576 48
WIRE -2272 48 -2272 -144
WIRE -2272 48 -2304 48
WIRE -1744 48 -1744 -16
WIRE -944 48 -944 32
WIRE -816 48 -816 32
WIRE 1168 48 1168 16
WIRE 1200 48 1200 32
WIRE 1200 48 1168 48
WIRE 864 64 864 16
WIRE 1200 64 1200 48
WIRE -2672 112 -2672 48
WIRE -1056 112 -1120 112
WIRE -944 112 -976 112
WIRE -816 112 -944 112
WIRE -768 112 -816 112
WIRE 2400 112 2320 112
WIRE 2720 112 2688 112
WIRE 2864 112 2864 -32
WIRE 2864 112 2800 112
WIRE -2432 128 -2432 112
WIRE 3568 128 3568 -16
WIRE 3632 128 3568 128
WIRE 3744 128 3712 128
WIRE 3968 128 3968 -16
WIRE 3968 128 3824 128
WIRE -944 144 -944 112
WIRE -816 160 -816 112
WIRE 864 160 864 144
WIRE 1200 160 1200 144
WIRE 2304 192 2272 192
WIRE 2400 192 2384 192
WIRE 2864 192 2864 112
WIRE 2864 192 2688 192
WIRE 4304 192 4208 192
WIRE 2864 208 2864 192
WIRE 2272 224 2272 192
WIRE 3808 224 3808 176
WIRE 4144 224 3808 224
WIRE 4304 224 4208 224
WIRE -944 240 -944 224
WIRE -816 240 -816 224
WIRE 3760 256 3760 176
WIRE 2304 272 2096 272
WIRE 2400 272 2304 272
WIRE 2784 272 2688 272
WIRE 2816 272 2816 32
WIRE 2816 272 2784 272
WIRE 4208 272 4208 240
WIRE 2304 288 2304 272
WIRE 2784 288 2784 272
WIRE 528 336 496 336
WIRE 2864 336 2864 288
WIRE -2976 400 -3008 400
WIRE -2912 400 -2976 400
WIRE -2848 400 -2912 400
WIRE -2784 400 -2848 400
WIRE -2720 400 -2784 400
WIRE -2656 400 -2720 400
WIRE -2592 400 -2656 400
WIRE -2528 400 -2592 400
WIRE -2464 400 -2528 400
WIRE -2400 400 -2464 400
WIRE -960 400 -976 400
WIRE 496 400 496 336
WIRE 2304 400 2304 352
WIRE 2544 400 2544 320
WIRE 2784 400 2784 352
WIRE -2976 416 -2976 400
WIRE -2912 416 -2912 400
WIRE -2848 416 -2848 400
WIRE -2784 416 -2784 400
WIRE -2720 416 -2720 400
WIRE -2656 416 -2656 400
WIRE -2592 416 -2592 400
WIRE -2528 416 -2528 400
WIRE -2464 416 -2464 400
WIRE -2400 416 -2400 400
WIRE -960 448 -960 400
WIRE 208 448 112 448
WIRE 400 448 336 448
WIRE 432 448 400 448
WIRE 704 448 560 448
WIRE 800 448 704 448
WIRE 1120 448 880 448
WIRE 208 480 112 480
WIRE 400 496 400 448
WIRE 432 496 400 496
WIRE -2976 512 -2976 480
WIRE -2912 512 -2912 480
WIRE -2848 512 -2848 480
WIRE -2784 512 -2784 480
WIRE -2720 512 -2720 480
WIRE -2656 512 -2656 480
WIRE -2592 512 -2592 480
WIRE -2528 512 -2528 480
WIRE -2464 512 -2464 480
WIRE -2400 512 -2400 480
WIRE 176 512 112 512
WIRE 208 512 176 512
WIRE 176 544 176 512
WIRE 208 544 176 544
WIRE -960 560 -960 528
WIRE -880 560 -960 560
WIRE -768 560 -800 560
WIRE -736 560 -768 560
WIRE 176 576 176 544
WIRE 208 576 176 576
WIRE -2976 592 -3008 592
WIRE -2912 592 -2976 592
WIRE -960 592 -960 560
WIRE -768 592 -768 560
WIRE 496 592 496 544
WIRE 528 592 496 592
WIRE -2976 608 -2976 592
WIRE -2912 608 -2912 592
WIRE 704 624 704 448
WIRE 768 624 704 624
WIRE 976 624 896 624
WIRE 1152 624 1104 624
WIRE 1296 624 1232 624
WIRE 1344 624 1296 624
WIRE 1472 624 1424 624
WIRE 1552 624 1472 624
WIRE 1712 624 1664 624
WIRE 2480 640 2112 640
WIRE 2624 640 2560 640
WIRE 2816 640 2720 640
WIRE 2848 640 2816 640
WIRE 3072 640 2944 640
WIRE 768 656 688 656
WIRE 976 656 928 656
WIRE 1296 656 1296 624
WIRE 1472 672 1472 624
WIRE 768 688 736 688
WIRE 976 688 960 688
WIRE 2864 688 2704 688
WIRE -2976 704 -2976 672
WIRE -2912 704 -2912 672
WIRE 560 704 544 704
WIRE -960 720 -960 672
WIRE -768 720 -768 656
WIRE 560 720 560 704
WIRE 736 720 736 688
WIRE 768 720 736 720
WIRE 736 752 736 720
WIRE 736 752 672 752
WIRE 768 752 736 752
WIRE 2512 752 2368 752
WIRE 2704 752 2576 752
WIRE -208 768 -256 768
WIRE -64 768 -128 768
WIRE -32 768 -64 768
WIRE 80 768 48 768
WIRE 496 768 80 768
WIRE 672 768 672 752
WIRE 672 768 624 768
WIRE 1296 768 1296 736
WIRE 1472 768 1472 736
WIRE 2864 768 2864 688
WIRE 2880 768 2864 768
WIRE -2976 784 -3008 784
WIRE -2912 784 -2976 784
WIRE -2848 784 -2912 784
WIRE -2784 784 -2848 784
WIRE -2720 784 -2784 784
WIRE -2656 784 -2720 784
WIRE -2592 784 -2656 784
WIRE -2528 784 -2592 784
WIRE -2464 784 -2528 784
WIRE -2400 784 -2464 784
WIRE -2336 784 -2400 784
WIRE -2272 784 -2336 784
WIRE -2976 800 -2976 784
WIRE -2912 800 -2912 784
WIRE -2848 800 -2848 784
WIRE -2784 800 -2784 784
WIRE -2720 800 -2720 784
WIRE -2656 800 -2656 784
WIRE -2592 800 -2592 784
WIRE -2528 800 -2528 784
WIRE -2464 800 -2464 784
WIRE -2400 800 -2400 784
WIRE -2336 800 -2336 784
WIRE -2272 800 -2272 784
WIRE -64 800 -64 768
WIRE 80 800 80 768
WIRE 496 816 464 816
WIRE 2240 832 2208 832
WIRE 2368 832 2368 752
WIRE 2368 832 2320 832
WIRE 2400 832 2368 832
WIRE 2704 832 2704 752
WIRE 2704 832 2688 832
WIRE 2816 832 2816 640
WIRE 2816 832 2768 832
WIRE 704 880 704 624
WIRE 768 880 704 880
WIRE 928 880 928 656
WIRE 928 880 896 880
WIRE -2976 896 -2976 864
WIRE -2912 896 -2912 864
WIRE -2848 896 -2848 864
WIRE -2784 896 -2784 864
WIRE -2720 896 -2720 864
WIRE -2656 896 -2656 864
WIRE -2592 896 -2592 864
WIRE -2528 896 -2528 864
WIRE -2464 896 -2464 864
WIRE -2400 896 -2400 864
WIRE -2336 896 -2336 864
WIRE -2272 896 -2272 864
WIRE 768 912 688 912
WIRE 2400 912 2320 912
WIRE 2720 912 2688 912
WIRE 2864 912 2864 768
WIRE 2864 912 2800 912
WIRE -64 944 -64 880
WIRE 80 944 80 864
WIRE 768 944 736 944
WIRE -2976 976 -3008 976
WIRE -2912 976 -2976 976
WIRE -2848 976 -2912 976
WIRE -2784 976 -2848 976
WIRE -2720 976 -2784 976
WIRE -2656 976 -2720 976
WIRE 560 976 544 976
WIRE 736 976 736 944
WIRE 768 976 736 976
WIRE -2976 992 -2976 976
WIRE -2912 992 -2912 976
WIRE -2848 992 -2848 976
WIRE -2784 992 -2784 976
WIRE -2720 992 -2720 976
WIRE -2656 992 -2656 976
WIRE 560 992 560 976
WIRE 2304 992 2272 992
WIRE 2400 992 2384 992
WIRE 2864 992 2864 912
WIRE 2864 992 2688 992
WIRE 736 1008 736 976
WIRE 768 1008 736 1008
WIRE 2864 1008 2864 992
WIRE 736 1024 736 1008
WIRE 736 1024 672 1024
WIRE 2272 1024 2272 992
WIRE -224 1040 -272 1040
WIRE -80 1040 -144 1040
WIRE -48 1040 -80 1040
WIRE 64 1040 32 1040
WIRE 496 1040 64 1040
WIRE 672 1040 672 1024
WIRE 672 1040 624 1040
WIRE -80 1072 -80 1040
WIRE 64 1072 64 1040
WIRE 2304 1072 2096 1072
WIRE 2400 1072 2304 1072
WIRE 2784 1072 2688 1072
WIRE 2816 1072 2816 832
WIRE 2816 1072 2784 1072
WIRE -2976 1088 -2976 1056
WIRE -2912 1088 -2912 1056
WIRE -2848 1088 -2848 1056
WIRE -2784 1088 -2784 1056
WIRE -2720 1088 -2720 1056
WIRE -2656 1088 -2656 1056
WIRE 496 1088 464 1088
WIRE 2304 1088 2304 1072
WIRE 2784 1088 2784 1072
WIRE 704 1120 704 880
WIRE 768 1120 704 1120
WIRE 960 1120 960 688
WIRE 960 1120 896 1120
WIRE 2864 1136 2864 1088
WIRE 768 1152 688 1152
WIRE -2976 1184 -3008 1184
WIRE -2912 1184 -2976 1184
WIRE -2848 1184 -2912 1184
WIRE -2784 1184 -2848 1184
WIRE -2720 1184 -2784 1184
WIRE -2656 1184 -2720 1184
WIRE -2592 1184 -2656 1184
WIRE -2528 1184 -2592 1184
WIRE 768 1184 736 1184
WIRE -2976 1200 -2976 1184
WIRE -2912 1200 -2912 1184
WIRE -2848 1200 -2848 1184
WIRE -2784 1200 -2784 1184
WIRE -2720 1200 -2720 1184
WIRE -2656 1200 -2656 1184
WIRE -2592 1200 -2592 1184
WIRE -2528 1200 -2528 1184
WIRE 2304 1200 2304 1152
WIRE 2544 1200 2544 1120
WIRE 2784 1200 2784 1152
WIRE -80 1216 -80 1152
WIRE 64 1216 64 1136
WIRE 560 1216 544 1216
WIRE 736 1216 736 1184
WIRE 768 1216 736 1216
WIRE 560 1232 560 1216
WIRE 736 1248 736 1216
WIRE 768 1248 736 1248
WIRE 736 1264 736 1248
WIRE 736 1264 672 1264
WIRE -224 1280 -272 1280
WIRE -80 1280 -144 1280
WIRE -48 1280 -80 1280
WIRE 64 1280 32 1280
WIRE 496 1280 64 1280
WIRE 672 1280 672 1264
WIRE 672 1280 624 1280
WIRE -2976 1296 -2976 1264
WIRE -2912 1296 -2912 1264
WIRE -2848 1296 -2848 1264
WIRE -2784 1296 -2784 1264
WIRE -2720 1296 -2720 1264
WIRE -2656 1296 -2656 1264
WIRE -2592 1296 -2592 1264
WIRE -2528 1296 -2528 1264
WIRE -80 1312 -80 1280
WIRE 64 1312 64 1280
WIRE 496 1328 464 1328
WIRE -2976 1392 -3008 1392
WIRE -2912 1392 -2976 1392
WIRE -2848 1392 -2912 1392
WIRE -2784 1392 -2848 1392
WIRE -2720 1392 -2784 1392
WIRE -2656 1392 -2720 1392
WIRE -2592 1392 -2656 1392
WIRE -2528 1392 -2592 1392
WIRE -2464 1392 -2528 1392
WIRE -2400 1392 -2464 1392
WIRE -2336 1392 -2400 1392
WIRE -2272 1392 -2336 1392
WIRE -2976 1408 -2976 1392
WIRE -2912 1408 -2912 1392
WIRE -2848 1408 -2848 1392
WIRE -2784 1408 -2784 1392
WIRE -2720 1408 -2720 1392
WIRE -2656 1408 -2656 1392
WIRE -2592 1408 -2592 1392
WIRE -2528 1408 -2528 1392
WIRE -2464 1408 -2464 1392
WIRE -2400 1408 -2400 1392
WIRE -2336 1408 -2336 1392
WIRE -2272 1408 -2272 1392
WIRE -80 1456 -80 1392
WIRE 64 1456 64 1376
WIRE -2976 1504 -2976 1472
WIRE -2912 1504 -2912 1472
WIRE -2848 1504 -2848 1472
WIRE -2784 1504 -2784 1472
WIRE -2720 1504 -2720 1472
WIRE -2656 1504 -2656 1472
WIRE -2592 1504 -2592 1472
WIRE -2528 1504 -2528 1472
WIRE -2464 1504 -2464 1472
WIRE -2400 1504 -2400 1472
WIRE -2336 1504 -2336 1472
WIRE -2272 1504 -2272 1472
FLAG -960 -192 0
FLAG -2304 -432 0
FLAG -2656 -432 0
FLAG -2992 -432 0
FLAG -768 -320 Umbilical_priority_comparator
FLAG -2432 128 0
FLAG -2208 -32 0
FLAG -2672 112 0
FLAG -2016 -144 LOGIC_POWER
FLAG 688 656 Umbilical_gate_control_logic_output
FLAG 3968 -624 0
FLAG 1120 448 Deny_signal
FLAG 3600 -944 OUTPUT_RAIL
FLAG -2976 512 0
FLAG -2912 512 0
FLAG -2848 512 0
FLAG -2784 512 0
FLAG -2720 512 0
FLAG -2656 512 0
FLAG -2592 512 0
FLAG -2528 512 0
FLAG -2464 512 0
FLAG -2400 512 0
FLAG -3008 400 LOGIC_POWER
FLAG -2976 704 0
FLAG -2912 704 0
FLAG -3008 592 LOGIC_POWER
FLAG -2976 896 0
FLAG -2912 896 0
FLAG -2848 896 0
FLAG -2784 896 0
FLAG -2592 896 0
FLAG -2528 896 0
FLAG -2464 896 0
FLAG -2400 896 0
FLAG -3008 784 LOGIC_POWER
FLAG -2144 -704 BATT_2
FLAG -2144 -832 BATT_1
FLAG -2144 -992 UMBILICAL
FLAG 2112 -160 BATT_1
FLAG 2112 640 BATT_2
FLAG 2592 -384 0
FLAG 3008 -384 0
FLAG 2224 -752 LOGIC_POWER
FLAG 2160 -944 UMBILICAL
FLAG 3120 -944 OUTPUT_RAIL
FLAG 2864 400 0
FLAG 2176 32 LOGIC_POWER
FLAG 3072 -160 OUTPUT_RAIL
FLAG 2544 1200 0
FLAG 2864 1200 0
FLAG 2208 832 LOGIC_POWER
FLAG 3072 640 OUTPUT_RAIL
FLAG 2832 -384 0
FLAG 2784 400 0
FLAG 2784 1200 0
FLAG 2368 -672 Umbilical_gate_control_logic_output
FLAG 2320 112 BATT_1_gate_control_logic_output
FLAG 2320 912 BATT_2_gate_control_signal_logic_output
FLAG 2320 -560 0
FLAG 2352 -384 0
FLAG 2272 224 0
FLAG 2304 400 0
FLAG 2272 1024 0
FLAG 2096 1072 Deny_signal
FLAG 2304 1200 0
FLAG -2976 1088 0
FLAG -2912 1088 0
FLAG -2848 1088 0
FLAG -2784 1088 0
FLAG -2720 1088 0
FLAG -2656 1088 0
FLAG -3008 976 LOGIC_POWER
FLAG 4048 -624 0
FLAG 4128 -624 0
FLAG 112 448 Umbilical_turn_on
FLAG 112 480 BATT_1_turn_on
FLAG 112 512 BATT_2_turn_on
FLAG 528 592 RESET_GATE
FLAG 848 -1008 Umbilical_gate_control_logic_output
FLAG 1200 -1008 Umbilical_turn_on
FLAG 1216 -592 BATT_1_turn_on
FLAG 1216 -144 BATT_2_turn_on
FLAG 864 -592 BATT_1_gate_control_logic_output
FLAG 864 -144 BATT_2_gate_control_signal_logic_output
FLAG -1744 48 0
FLAG -1712 -144 5V
FLAG 528 336 5V
FLAG -1008 -480 LOGIC_POWER
FLAG -1008 -688 LOGIC_POWER
FLAG -1008 -896 LOGIC_POWER
FLAG -944 -1024 LOGIC_POWER
FLAG -944 -608 LOGIC_POWER
FLAG -272 -944 Umbilical_gate_control_logic_output
FLAG -272 -784 BATT_1_gate_control_logic_output
FLAG -272 -576 BATT_2_gate_control_signal_logic_output
FLAG -944 -816 LOGIC_POWER
FLAG 544 704 LOGIC_POWER
FLAG 688 912 BATT_1_gate_control_logic_output
FLAG 544 976 LOGIC_POWER
FLAG 544 1216 LOGIC_POWER
FLAG 688 1152 BATT_2_gate_control_signal_logic_output
FLAG 1296 768 0
FLAG 1472 768 0
FLAG 1712 624 RESET_GATE
FLAG -2992 -224 UMBILICAL
FLAG -2992 -144 BATT_1
FLAG -2992 -64 BATT_2
FLAG -1120 -320 UMBILICAL
FLAG -944 48 0
FLAG -768 -80 BATT_1_priority_comparator
FLAG -1120 -80 BATT_1
FLAG -944 240 0
FLAG -1120 112 BATT_2
FLAG -768 112 BATT_2_priority_comparator
FLAG -1008 -944 Umbilical_priority_comparator
FLAG -1008 -736 BATT_1_priority_comparator
FLAG -1008 -528 BATT_2_priority_comparator
FLAG -256 768 UMBILICAL
FLAG -272 1040 BATT_1
FLAG -64 944 0
FLAG 464 816 OUTPUT_RAIL_comparator
FLAG -272 1280 BATT_2
FLAG -976 400 OUTPUT_RAIL
FLAG 464 1088 OUTPUT_RAIL_comparator
FLAG 464 1328 OUTPUT_RAIL_comparator
FLAG -960 720 0
FLAG -736 560 OUTPUT_RAIL_comparator
FLAG 80 944 0
FLAG -80 1216 0
FLAG 64 1216 0
FLAG -80 1456 0
FLAG 64 1456 0
FLAG -768 720 0
FLAG -2720 896 0
FLAG -2656 896 0
FLAG -2336 896 0
FLAG -2272 896 0
FLAG -2976 1296 0
FLAG -2912 1296 0
FLAG -2848 1296 0
FLAG -2720 1296 0
FLAG -2656 1296 0
FLAG -2592 1296 0
FLAG -3008 1184 LOGIC_POWER
FLAG -2784 1296 0
FLAG -2528 1296 0
FLAG -2976 1504 0
FLAG -2912 1504 0
FLAG -2848 1504 0
FLAG -2784 1504 0
FLAG -2592 1504 0
FLAG -2528 1504 0
FLAG -2464 1504 0
FLAG -2400 1504 0
FLAG -3008 1392 LOGIC_POWER
FLAG -2720 1504 0
FLAG -2656 1504 0
FLAG -2336 1504 0
FLAG -2272 1504 0
FLAG 3024 -816 UMBILICAL_gate_drive
FLAG 2880 -32 BATT_1_gate_drive
FLAG 2880 768 BATT_2_gate_drive
FLAG 2544 400 0
FLAG 2096 272 Deny_signal
FLAG 2224 -512 Deny_signal
FLAG 4224 -624 0
FLAG -816 -208 0
FLAG -816 48 0
FLAG -816 240 0
FLAG 848 -704 0
FLAG 1184 -704 0
FLAG 896 -928 0
FLAG 1296 -928 LOGIC_POWER
FLAG 864 -288 0
FLAG 1200 -288 0
FLAG 912 -512 0
FLAG 1312 -512 LOGIC_POWER
FLAG 864 160 0
FLAG 1200 160 0
FLAG 912 -64 0
FLAG 1312 -64 LOGIC_POWER
FLAG 2832 -672 TGUP
FLAG 3520 -16 TGUP
FLAG 4048 -16 UMBILICAL_gate_drive
FLAG 3856 -624 0
FLAG 4176 -304 0
FLAG 3760 256 0
FLAG 4208 272 0
FLAG 4304 192 UMBILICAL_gate_drive
FLAG 4304 224 OUTPUT_RAIL
SYMBOL voltage -2992 -528 R0
WINDOW 123 0 0 Left 0
WINDOW 39 24 124 Left 1
WINDOW 3 24 96 Left 1
SYMATTR SpiceLine Rser=100m
SYMATTR Value PULSE(0 48 0 10m 2m 200m 500m 2)
SYMATTR InstName UMBILICAL
SYMBOL voltage -2656 -528 R0
WINDOW 123 0 0 Left 0
WINDOW 39 24 124 Left 1
WINDOW 3 24 96 Left 1
SYMATTR SpiceLine Rser=60m
SYMATTR Value PULSE(0 16.8 20m 10m 10m 500m 750m 2)
SYMATTR InstName BATT_1
SYMBOL voltage -2304 -528 R0
WINDOW 123 0 0 Left 0
WINDOW 39 24 124 Left 1
WINDOW 3 24 96 Left 1
SYMATTR SpiceLine Rser=60m
SYMATTR Value PULSE(0 16.8 20m 10m 10m 810m 11 1)
SYMATTR InstName BATT_2
SYMBOL res -976 -336 R90
WINDOW 0 0 56 VBottom 2
WINDOW 3 32 56 VTop 2
SYMATTR InstName R1
SYMATTR Value 68000
SYMBOL res -976 -304 R0
SYMATTR InstName R2
SYMATTR Value 8500
SYMBOL bv -2992 -672 R0
WINDOW 3 24 96 Left 1
SYMATTR Value V=white(2e4*time) / 13
SYMATTR InstName UMBILICAL_Noise
SYMBOL bv -2656 -656 R0
WINDOW 3 24 96 Left 1
SYMATTR Value V=white(2e4*time) / 13
SYMATTR InstName BATT_1_Noise
SYMBOL bv -2304 -656 R0
WINDOW 3 24 96 Left 1
SYMATTR Value V=white(2e4*time) / 13
SYMATTR InstName BATT_2_Noise
SYMBOL cap -2576 32 R90
WINDOW 0 0 32 VBottom 2
WINDOW 3 32 32 VTop 2
SYMATTR InstName C7
SYMATTR Value 1n
SYMBOL cap -2224 -128 R0
SYMATTR InstName C8
SYMATTR Value 4.7µ
SYMATTR SpiceLine Rser=1.5m
SYMBOL ADM7170-5.0 -2432 -48 R0
SYMATTR InstName U1
SYMBOL cap 3952 -752 R0
SYMATTR InstName C1
SYMATTR Value 330µ
SYMATTR SpiceLine Rser=0.1
SYMBOL cap -2992 416 R0
SYMATTR InstName C13
SYMATTR Value 1µ
SYMBOL cap -2928 416 R0
SYMATTR InstName C14
SYMATTR Value 1µ
SYMBOL cap -2864 416 R0
SYMATTR InstName C16
SYMATTR Value 1µ
SYMBOL cap -2800 416 R0
SYMATTR InstName C17
SYMATTR Value 1µ
SYMBOL cap -2736 416 R0
SYMATTR InstName C24
SYMATTR Value 1µ
SYMBOL cap -2672 416 R0
SYMATTR InstName C26
SYMATTR Value 0.1µ
SYMBOL cap -2608 416 R0
SYMATTR InstName C27
SYMATTR Value 0.1µ
SYMBOL cap -2544 416 R0
SYMATTR InstName C28
SYMATTR Value 0.1µ
SYMBOL cap -2480 416 R0
SYMATTR InstName C29
SYMATTR Value 0.1µ
SYMBOL cap -2416 416 R0
SYMATTR InstName C30
SYMATTR Value 0.1µ
SYMBOL cap -2992 608 R0
SYMATTR InstName C3
SYMATTR Value 1µ
SYMBOL cap -2928 608 R0
SYMATTR InstName C37
SYMATTR Value 0.1µ
SYMBOL cap -2992 800 R0
SYMATTR InstName C5
SYMATTR Value 1µ
SYMBOL cap -2928 800 R0
SYMATTR InstName C6
SYMATTR Value 1µ
SYMBOL cap -2864 800 R0
SYMATTR InstName C9
SYMATTR Value 1µ
SYMBOL cap -2800 800 R0
SYMATTR InstName C32
SYMATTR Value 1µ
SYMBOL cap -2608 800 R0
SYMATTR InstName C39
SYMATTR Value 0.1µ
SYMBOL cap -2544 800 R0
SYMATTR InstName C40
SYMATTR Value 0.1µ
SYMBOL cap -2480 800 R0
SYMATTR InstName C41
SYMATTR Value 0.1µ
SYMBOL cap -2416 800 R0
SYMATTR InstName C42
SYMATTR Value 0.1µ
SYMBOL res -2064 -160 R90
WINDOW 0 0 56 VBottom 2
WINDOW 3 32 56 VTop 2
SYMATTR InstName R13
SYMATTR Value 0.0001
SYMBOL PowerProducts\\LTC7001 2592 -624 R0
SYMATTR InstName U15
SYMBOL res 2448 -608 R90
WINDOW 0 0 56 VBottom 2
WINDOW 3 32 56 VTop 2
SYMATTR InstName R11
SYMATTR Value 67857
SYMBOL nmos 2672 -896 R270
SYMATTR InstName M4
SYMATTR Value IPA180N10N3
SYMBOL nmos 2992 -896 M270
SYMATTR InstName M5
SYMATTR Value IPA180N10N3
SYMBOL diode 2560 -816 R270
WINDOW 0 32 32 VTop 2
WINDOW 3 0 32 VBottom 2
SYMATTR InstName D7
SYMATTR Value RF071MM2S
SYMBOL cap 2992 -448 R0
SYMATTR InstName C20
SYMATTR Value 20n
SYMBOL res 2992 -592 R0
SYMATTR InstName R20
SYMATTR Value 10
SYMBOL PowerProducts\\LTC7001 2544 160 R0
SYMATTR InstName U14
SYMBOL nmos 2624 -112 R270
SYMATTR InstName M2
SYMATTR Value IPA180N10N3
SYMBOL nmos 2944 -112 M270
SYMATTR InstName M3
SYMATTR Value IPA180N10N3
SYMBOL diode 2512 -32 R270
WINDOW 0 32 32 VTop 2
WINDOW 3 0 32 VBottom 2
SYMATTR InstName D3
SYMATTR Value RF071MM2S
SYMBOL cap 2848 336 R0
SYMATTR InstName C21
SYMATTR Value 20n
SYMBOL res 2848 192 R0
SYMATTR InstName R17
SYMATTR Value 10
SYMBOL PowerProducts\\LTC7001 2544 960 R0
SYMATTR InstName U16
SYMBOL nmos 2624 688 R270
SYMATTR InstName M8
SYMATTR Value IPA180N10N3
SYMBOL nmos 2944 688 M270
SYMATTR InstName M9
SYMATTR Value IPA180N10N3
SYMBOL diode 2512 768 R270
WINDOW 0 32 32 VTop 2
WINDOW 3 0 32 VBottom 2
SYMATTR InstName D8
SYMATTR Value RF071MM2S
SYMBOL res 2816 896 R90
WINDOW 0 0 56 VBottom 2
WINDOW 3 32 56 VTop 2
SYMATTR InstName R23
SYMATTR Value 500
SYMBOL cap 2848 1136 R0
SYMATTR InstName C23
SYMATTR Value 20n
SYMBOL res 2848 992 R0
SYMATTR InstName R24
SYMATTR Value 10
SYMBOL schottky 2848 -432 R180
WINDOW 0 24 64 Left 2
WINDOW 3 24 0 Left 2
SYMATTR InstName D9
SYMBOL schottky 2800 352 R180
WINDOW 0 24 64 Left 2
WINDOW 3 24 0 Left 2
SYMATTR InstName D10
SYMBOL schottky 2800 1152 R180
WINDOW 0 24 64 Left 2
WINDOW 3 24 0 Left 2
SYMATTR InstName D11
SYMBOL zener 2368 -432 R180
WINDOW 0 24 64 Left 2
WINDOW 3 24 0 Left 0
SYMATTR InstName D12
SYMATTR Value UMZ5_1N
SYMBOL res 2400 176 R90
WINDOW 0 0 56 VBottom 2
WINDOW 3 32 56 VTop 2
SYMATTR InstName R14
SYMATTR Value 67857
SYMBOL zener 2320 352 R180
WINDOW 0 24 64 Left 2
WINDOW 3 24 0 Left 0
SYMATTR InstName D13
SYMATTR Value UMZ5_1N
SYMBOL res 2400 976 R90
WINDOW 0 0 56 VBottom 2
WINDOW 3 32 56 VTop 2
SYMATTR InstName R22
SYMATTR Value 67857
SYMBOL zener 2320 1152 R180
WINDOW 0 24 64 Left 2
WINDOW 3 24 0 Left 0
SYMATTR InstName D14
SYMATTR Value UMZ5_1N
SYMBOL res 2592 -960 R90
WINDOW 0 0 56 VBottom 2
WINDOW 3 32 56 VTop 2
SYMATTR InstName R27
SYMATTR Value 0.00001
SYMBOL res 2576 -176 R90
WINDOW 0 0 56 VBottom 2
WINDOW 3 32 56 VTop 2
SYMATTR InstName R28
SYMATTR Value 0.00001
SYMBOL res 2576 624 R90
WINDOW 0 0 56 VBottom 2
WINDOW 3 32 56 VTop 2
SYMATTR InstName R29
SYMATTR Value 0.001
SYMBOL cap -2992 992 R0
SYMATTR InstName C33
SYMATTR Value 1µ
SYMBOL cap -2928 992 R0
SYMATTR InstName C34
SYMATTR Value 1µ
SYMBOL cap -2864 992 R0
SYMATTR InstName C35
SYMATTR Value 1µ
SYMBOL cap -2800 992 R0
SYMATTR InstName C43
SYMATTR Value 0.1µ
SYMBOL cap -2736 992 R0
SYMATTR InstName C44
SYMATTR Value 0.1µ
SYMBOL cap -2672 992 R0
SYMATTR InstName C45
SYMATTR Value 0.1µ
SYMBOL cap 4032 -752 R0
SYMATTR InstName C36
SYMATTR Value 100n
SYMBOL cap 4112 -752 R0
SYMATTR InstName C46
SYMATTR Value 100p
SYMBOL res 3968 -960 R90
WINDOW 0 0 56 VBottom 2
WINDOW 3 32 56 VTop 2
SYMATTR InstName R30
SYMATTR Value 0.00001
SYMBOL Components\\SN74LVC1G332DBVR\ (OR\ gate)\\SN74LVC1G332DBVR 272 512 R0
SYMATTR InstName U17
SYMBOL SN74LVC2G74DCUR 496 480 R0
SYMATTR InstName U2
SYMBOL voltage -1744 -112 R0
WINDOW 123 0 0 Left 0
WINDOW 39 0 0 Left 0
SYMATTR InstName V2
SYMATTR Value 5
SYMBOL TLV1851DBVR -912 -944 R0
SYMATTR InstName U18
SYMBOL TLV1851DBVR -912 -736 R0
SYMATTR InstName U20
SYMBOL TLV1851DBVR -912 -528 R0
SYMATTR InstName U23
SYMBOL SN74LVC1G14DBVR -752 -864 R0
SYMATTR InstName U26
SYMBOL SN74LVC1G14DBVR -752 -656 R0
SYMATTR InstName U27
SYMBOL TLV1851DBVR 560 768 R0
WINDOW 0 35 -49 Bottom 1
SYMATTR InstName U12
SYMBOL TLV1851DBVR 560 1040 R0
WINDOW 0 35 -49 Bottom 1
SYMATTR InstName U28
SYMBOL TLV1851DBVR 560 1280 R0
WINDOW 0 35 -49 Bottom 1
SYMATTR InstName U30
SYMBOL res 1280 640 R0
SYMATTR InstName R41
SYMATTR Value 10e4
SYMBOL res 1248 608 R90
WINDOW 0 0 56 VBottom 2
WINDOW 3 32 56 VTop 2
SYMATTR InstName R42
SYMATTR Value 0.00001
SYMBOL Components\\SN74LVC1G332DBVR\ (OR\ gate)\\SN74LVC1G332DBVR 1040 688 R0
SYMATTR InstName U31
SYMBOL cap 1456 672 R0
SYMATTR InstName C51
SYMATTR Value 2.2n
SYMBOL res 1440 608 R90
WINDOW 0 0 56 VBottom 2
WINDOW 3 32 56 VTop 2
SYMATTR InstName R43
SYMATTR Value 4700
SYMBOL SN74LVC1G14DBVR 1600 624 R0
SYMATTR InstName U32
SYMBOL schottky -2864 -48 R270
WINDOW 3 0 32 VBottom 2
WINDOW 0 32 32 VTop 2
SYMATTR Value MMSD4148
SYMATTR InstName D5
SYMBOL schottky -2864 -128 R270
WINDOW 3 0 32 VBottom 2
WINDOW 0 32 32 VTop 2
SYMATTR Value MMSD4148
SYMATTR InstName D6
SYMBOL schottky -2864 -208 R270
WINDOW 3 0 32 VBottom 2
WINDOW 0 32 32 VTop 2
SYMATTR Value MMSD4148
SYMATTR InstName D15
SYMBOL res -960 -64 R0
SYMATTR InstName R7
SYMATTR Value 4778
SYMBOL res -1072 -64 R270
WINDOW 0 32 56 VTop 2
WINDOW 3 0 56 VBottom 2
SYMATTR InstName R9
SYMATTR Value 10000
SYMBOL res -224 784 R270
WINDOW 0 32 56 VTop 2
WINDOW 3 0 56 VBottom 2
SYMATTR InstName R3
SYMATTR Value 68000
SYMBOL res -80 784 R0
SYMATTR InstName R4
SYMATTR Value 68000
SYMBOL res -976 432 R0
SYMATTR InstName R46
SYMATTR Value 68000
SYMBOL res -976 576 R0
SYMATTR InstName R47
SYMATTR Value 68000
SYMBOL cap 96 800 M0
WINDOW 3 -50 49 Left 2
WINDOW 0 -34 13 Left 2
SYMATTR Value 1n
SYMATTR InstName C11
SYMBOL res -48 752 M90
WINDOW 0 0 56 VBottom 2
WINDOW 3 32 56 VTop 2
SYMATTR InstName R48
SYMATTR Value 330
SYMBOL res -240 1056 R270
WINDOW 0 32 56 VTop 2
WINDOW 3 0 56 VBottom 2
SYMATTR InstName R6
SYMATTR Value 68000
SYMBOL res -96 1056 R0
SYMATTR InstName R31
SYMATTR Value 68000
SYMBOL cap 80 1072 M0
WINDOW 3 -50 49 Left 2
WINDOW 0 -34 13 Left 2
SYMATTR Value 1n
SYMATTR InstName C47
SYMBOL res -64 1024 M90
WINDOW 0 0 56 VBottom 2
WINDOW 3 32 56 VTop 2
SYMATTR InstName R32
SYMATTR Value 330
SYMBOL res -240 1296 R270
WINDOW 0 32 56 VTop 2
WINDOW 3 0 56 VBottom 2
SYMATTR InstName R34
SYMATTR Value 68000
SYMBOL res -96 1296 R0
SYMATTR InstName R49
SYMATTR Value 68000
SYMBOL cap 80 1312 M0
WINDOW 3 -50 49 Left 2
WINDOW 0 -34 13 Left 2
SYMATTR Value 1n
SYMATTR InstName C52
SYMBOL res -64 1264 M90
WINDOW 0 0 56 VBottom 2
WINDOW 3 32 56 VTop 2
SYMATTR InstName R50
SYMATTR Value 330
SYMBOL cap -752 592 M0
WINDOW 3 -50 49 Left 2
WINDOW 0 -34 13 Left 2
SYMATTR Value 1n
SYMATTR InstName C53
SYMBOL res -896 544 M90
WINDOW 0 0 56 VBottom 2
WINDOW 3 32 56 VTop 2
SYMATTR InstName R51
SYMATTR Value 330
SYMBOL res 3792 -960 R90
WINDOW 0 0 56 VBottom 2
WINDOW 3 32 56 VTop 2
SYMATTR InstName R52
SYMATTR Value 0.00001
SYMBOL cap -2736 800 R0
SYMATTR InstName C4
SYMATTR Value 1µ
SYMBOL cap -2672 800 R0
SYMATTR InstName C38
SYMATTR Value 1µ
SYMBOL cap -2352 800 R0
SYMATTR InstName C54
SYMATTR Value 0.1µ
SYMBOL cap -2288 800 R0
SYMATTR InstName C55
SYMATTR Value 0.1µ
SYMBOL cap -2992 1200 R0
SYMATTR InstName C57
SYMATTR Value 1µ
SYMBOL cap -2928 1200 R0
SYMATTR InstName C58
SYMATTR Value 1µ
SYMBOL cap -2864 1200 R0
SYMATTR InstName C59
SYMATTR Value 1µ
SYMBOL cap -2736 1200 R0
SYMATTR InstName C60
SYMATTR Value 0.1µ
SYMBOL cap -2672 1200 R0
SYMATTR InstName C61
SYMATTR Value 0.1µ
SYMBOL cap -2608 1200 R0
SYMATTR InstName C62
SYMATTR Value 0.1µ
SYMBOL cap -2800 1200 R0
SYMATTR InstName C63
SYMATTR Value 1µ
SYMBOL cap -2544 1200 R0
SYMATTR InstName C64
SYMATTR Value 0.1µ
SYMBOL cap -2992 1408 R0
SYMATTR InstName C25
SYMATTR Value 1µ
SYMBOL cap -2928 1408 R0
SYMATTR InstName C31
SYMATTR Value 1µ
SYMBOL cap -2864 1408 R0
SYMATTR InstName C65
SYMATTR Value 1µ
SYMBOL cap -2800 1408 R0
SYMATTR InstName C66
SYMATTR Value 1µ
SYMBOL cap -2608 1408 R0
SYMATTR InstName C67
SYMATTR Value 0.1µ
SYMBOL cap -2544 1408 R0
SYMATTR InstName C68
SYMATTR Value 0.1µ
SYMBOL cap -2480 1408 R0
SYMATTR InstName C69
SYMATTR Value 0.1µ
SYMBOL cap -2416 1408 R0
SYMATTR InstName C70
SYMATTR Value 0.1µ
SYMBOL cap -2736 1408 R0
SYMATTR InstName C71
SYMATTR Value 1µ
SYMBOL cap -2672 1408 R0
SYMATTR InstName C72
SYMATTR Value 1µ
SYMBOL cap -2352 1408 R0
SYMATTR InstName C74
SYMATTR Value 0.1µ
SYMBOL cap -2288 1408 R0
SYMATTR InstName C75
SYMATTR Value 0.1µ
SYMBOL SN74LVC1G11DCKR 832 672 R0
SYMATTR InstName U3
SYMBOL SN74LVC1G11DCKR 832 928 R0
SYMATTR InstName U7
SYMBOL SN74LVC1G11DCKR 832 1168 R0
SYMATTR InstName U8
SYMBOL SN74LVC1G11DCKR -512 -736 R0
SYMATTR InstName U9
SYMBOL SN74LVC1G11DCKR -512 -528 R0
SYMATTR InstName U10
SYMBOL res -304 -592 R90
WINDOW 0 0 56 VBottom 2