Version 4.1
SHEET 1 1912 2516
WIRE -1312 816 -1392 816
WIRE -1152 816 -1232 816
WIRE -1040 816 -1056 816
WIRE -864 816 -1040 816
WIRE -816 816 -864 816
WIRE -784 816 -816 816
WIRE -576 816 -688 816
WIRE -368 816 -496 816
WIRE 352 816 272 816
WIRE 512 816 432 816
WIRE 624 816 608 816
WIRE 704 816 624 816
WIRE 832 816 704 816
WIRE 880 816 832 816
WIRE 1088 816 976 816
WIRE 1296 816 1168 816
WIRE -864 848 -864 816
WIRE -896 864 -1072 864
WIRE -816 864 -816 816
WIRE 832 864 832 816
WIRE -1040 896 -1040 816
WIRE -1040 896 -1248 896
WIRE 624 896 624 816
WIRE 624 896 416 896
WIRE -1248 912 -1248 896
WIRE -368 912 -368 816
WIRE 416 912 416 896
WIRE 1296 912 1296 816
WIRE 704 944 704 816
WIRE -1392 960 -1392 816
WIRE 272 960 272 816
WIRE -1248 1024 -1248 992
WIRE -1104 1024 -1248 1024
WIRE -896 1024 -896 864
WIRE -896 1024 -1024 1024
WIRE -864 1024 -864 928
WIRE -864 1024 -896 1024
WIRE -816 1024 -816 928
WIRE -816 1024 -864 1024
WIRE -768 1024 -768 864
WIRE -768 1024 -816 1024
WIRE 416 1024 416 992
WIRE 592 1024 592 864
WIRE 592 1024 416 1024
WIRE 704 1024 704 1008
WIRE 704 1024 592 1024
WIRE 832 1024 832 928
WIRE 832 1024 704 1024
WIRE 896 1024 896 864
WIRE 896 1024 832 1024
WIRE 416 1056 416 1024
WIRE -1248 1072 -1248 1024
WIRE -1248 1168 -1248 1136
WIRE -1152 1168 -1248 1168
WIRE -896 1168 -1152 1168
WIRE 416 1168 416 1136
WIRE 768 1168 416 1168
WIRE -1392 1184 -1392 1040
WIRE 272 1184 272 1040
WIRE -896 1200 -896 1168
WIRE 768 1200 768 1168
WIRE -1152 1232 -1152 1168
WIRE -768 1280 -848 1280
WIRE -640 1280 -688 1280
WIRE -512 1280 -640 1280
WIRE -384 1280 -512 1280
WIRE 848 1280 816 1280
WIRE 896 1280 848 1280
WIRE 1024 1280 976 1280
WIRE 1280 1280 1024 1280
WIRE -640 1312 -640 1280
WIRE -384 1312 -384 1280
WIRE 1024 1312 1024 1280
WIRE 1280 1312 1280 1280
WIRE -1152 1328 -1152 1296
WIRE -896 1328 -896 1296
WIRE -896 1328 -1152 1328
WIRE -512 1328 -512 1280
WIRE 768 1328 768 1296
WIRE 848 1328 848 1280
WIRE -640 1424 -640 1392
WIRE -512 1424 -512 1392
WIRE -512 1424 -640 1424
WIRE -384 1424 -384 1392
WIRE -384 1424 -512 1424
WIRE 848 1424 848 1392
WIRE 1024 1424 1024 1392
WIRE 1024 1424 848 1424
WIRE 1280 1424 1280 1392
WIRE 1280 1424 1024 1424
FLAG -368 912 0
FLAG -1392 1184 0
FLAG -896 1328 0
FLAG -640 1424 0
FLAG 1296 912 0
FLAG 272 1184 0
FLAG 768 1328 0
FLAG 1024 1424 0
SYMBOL pmos -688 864 M270
WINDOW 3 56 72 Left 0
SYMATTR Value Si4427DY
SYMATTR InstName M4
SYMBOL pmos -1152 864 R270
WINDOW 3 56 72 Left 0
SYMATTR Value Si4427DY
SYMATTR InstName M5
SYMBOL res -480 800 R90
WINDOW 0 0 56 VBottom 2
WINDOW 3 32 56 VTop 2
SYMATTR InstName R7
SYMATTR Value 3000
SYMBOL voltage -1392 944 R0
WINDOW 123 0 0 Left 0
WINDOW 39 0 0 Left 0
SYMATTR InstName V5
SYMATTR Value 17
SYMBOL nmos -848 1200 M0
SYMATTR InstName M6
SYMATTR Value Si7336ADP
SYMBOL voltage -384 1296 R0
WINDOW 123 0 0 Left 0
WINDOW 39 0 0 Left 0
SYMATTR InstName V7
SYMATTR Value PULSE(0 10 160m 1u 1u 20m 160m 2)
SYMBOL res -672 1264 R90
WINDOW 0 0 56 VBottom 2
WINDOW 3 32 56 VTop 2
SYMATTR InstName R10
SYMATTR Value 220
SYMBOL res -656 1296 R0
SYMATTR InstName R11
SYMATTR Value 10000
SYMBOL cap -528 1328 R0
SYMATTR InstName C3
SYMATTR Value 10p
SYMBOL res -1216 800 R90
WINDOW 0 0 56 VBottom 2
WINDOW 3 32 56 VTop 2
SYMATTR InstName R22
SYMATTR Value 1
SYMBOL zener -1232 1136 R180
WINDOW 0 24 64 Left 2
WINDOW 3 24 0 Left 2
SYMATTR InstName D2
SYMATTR Value BZX84C8V2L
SYMBOL res -1008 1008 R90
WINDOW 0 0 56 VBottom 2
WINDOW 3 32 56 VTop 2
SYMATTR InstName R8
SYMATTR Value 220
SYMBOL res -1264 896 R0
SYMATTR InstName R23
SYMATTR Value 10000
SYMBOL cap -1168 1232 R0
SYMATTR InstName C8
SYMATTR Value 10n
SYMBOL res -880 832 R0
WINDOW 0 -43 26 Left 2
WINDOW 3 -23 125 Left 2
SYMATTR InstName R9
SYMATTR Value 10000
SYMBOL cap -832 864 R0
SYMATTR InstName C2
SYMATTR Value 10n
SYMBOL pmos 976 864 M270
WINDOW 3 56 72 Left 0
SYMATTR Value Si4427DY
SYMATTR InstName M7
SYMBOL pmos 512 864 R270
WINDOW 3 56 72 Left 0
SYMATTR Value Si4427DY
SYMATTR InstName M8
SYMBOL res 1184 800 R90
WINDOW 0 0 56 VBottom 2
WINDOW 3 32 56 VTop 2
SYMATTR InstName R6
SYMATTR Value 3000
SYMBOL voltage 272 944 R0
WINDOW 123 0 0 Left 0
WINDOW 39 24 124 Left 2
SYMATTR InstName V8
SYMATTR Value 17
SYMBOL nmos 816 1200 M0
SYMATTR InstName M9
SYMATTR Value Si7336ADP
SYMBOL voltage 1280 1296 R0
WINDOW 123 0 0 Left 0
WINDOW 39 0 0 Left 0
SYMATTR InstName V9
SYMATTR Value PULSE(0 10 160m 1u 1u 20m 160m 2)
SYMBOL res 992 1264 R90
WINDOW 0 0 56 VBottom 2
WINDOW 3 32 56 VTop 2
SYMATTR InstName R12
SYMATTR Value 220
SYMBOL res 1008 1296 R0
SYMATTR InstName R13
SYMATTR Value 10000
SYMBOL cap 832 1328 R0
SYMATTR InstName C4
SYMATTR Value 10p
SYMBOL res 400 896 R0
SYMATTR InstName R16
SYMATTR Value 10000
SYMBOL res 400 1040 R0
SYMATTR InstName R18
SYMATTR Value 10000
SYMBOL zener 848 928 R180
WINDOW 0 24 64 Left 2
WINDOW 3 24 0 Left 2
SYMATTR InstName D3
SYMATTR Value BZX84C8V2L
SYMBOL res 448 800 R90
WINDOW 0 0 56 VBottom 2
WINDOW 3 32 56 VTop 2
SYMATTR InstName R14
SYMATTR Value 1
SYMBOL cap 688 944 R0
SYMATTR InstName C1
SYMATTR Value 10p
TEXT -1176 712 Left 2 ;THIS NEW GATE DRIVER SETUP WORKS - MAY 5
TEXT 488 712 Left 2 ;THIS NEW GATE DRIVER SETUP WORKS - MAY 5
TEXT -1424 1448 Left 2 !.tran 600m
