Version 4.1
SHEET 1 2720 2516
WIRE -768 400 -848 400
WIRE -608 400 -688 400
WIRE -496 400 -512 400
WIRE -416 400 -496 400
WIRE -288 400 -416 400
WIRE -240 400 -288 400
WIRE -96 400 -144 400
WIRE -32 400 -96 400
WIRE 176 400 48 400
WIRE 752 400 672 400
WIRE 912 400 832 400
WIRE 1024 400 1008 400
WIRE 1104 400 1024 400
WIRE 1232 400 1104 400
WIRE 1280 400 1232 400
WIRE 1488 400 1376 400
WIRE 1904 416 1824 416
WIRE 2064 416 1984 416
WIRE 2176 416 2160 416
WIRE 2256 416 2176 416
WIRE 2384 416 2256 416
WIRE 2432 416 2384 416
WIRE 2640 416 2528 416
WIRE -288 448 -288 400
WIRE 1232 448 1232 400
WIRE 2384 464 2384 416
WIRE -496 480 -496 400
WIRE -496 480 -704 480
WIRE 1024 480 1024 400
WIRE 1024 480 816 480
WIRE -704 496 -704 480
WIRE 176 496 176 400
WIRE 816 496 816 480
WIRE 2176 496 2176 416
WIRE 2176 496 1968 496
WIRE 1968 512 1968 496
WIRE -416 528 -416 400
WIRE 1104 528 1104 400
WIRE -848 544 -848 400
WIRE 672 544 672 400
WIRE 2256 544 2256 416
WIRE 1824 560 1824 416
WIRE -704 608 -704 576
WIRE -528 608 -528 448
WIRE -528 608 -704 608
WIRE -416 608 -416 592
WIRE -416 608 -528 608
WIRE -288 608 -288 512
WIRE -288 608 -416 608
WIRE -224 608 -224 448
WIRE -224 608 -288 608
WIRE 816 608 816 576
WIRE 992 608 992 448
WIRE 992 608 816 608
WIRE 1104 608 1104 592
WIRE 1104 608 992 608
WIRE 1232 608 1232 512
WIRE 1232 608 1104 608
WIRE 1296 608 1296 448
WIRE 1296 608 1232 608
WIRE 1968 624 1968 592
WIRE 2144 624 2144 464
WIRE 2144 624 1968 624
WIRE 2256 624 2256 608
WIRE 2256 624 2144 624
WIRE 2384 624 2384 528
WIRE 2384 624 2256 624
WIRE 2448 624 2448 464
WIRE 2448 624 2384 624
WIRE -704 640 -704 608
WIRE 816 640 816 608
WIRE 1968 656 1968 624
WIRE -704 752 -704 720
WIRE -352 752 -704 752
WIRE 816 752 816 720
WIRE 1168 752 816 752
WIRE -848 768 -848 624
WIRE 672 768 672 624
WIRE 1968 768 1968 736
WIRE 2320 768 1968 768
WIRE -352 784 -352 752
WIRE 1168 784 1168 752
WIRE 1824 784 1824 640
WIRE 2320 800 2320 768
WIRE -272 864 -304 864
WIRE -224 864 -272 864
WIRE -96 864 -144 864
WIRE 160 864 -96 864
WIRE 1248 864 1216 864
WIRE 1296 864 1248 864
WIRE 1424 864 1376 864
WIRE 2400 880 2368 880
WIRE 2448 880 2400 880
WIRE 2576 880 2528 880
WIRE -96 896 -96 864
WIRE 160 896 160 864
WIRE 1424 896 1424 864
WIRE -352 912 -352 880
WIRE -272 912 -272 864
WIRE 1168 912 1168 880
WIRE 1248 912 1248 864
WIRE 2576 912 2576 880
WIRE 2320 928 2320 896
WIRE 2400 928 2400 880
WIRE -272 1008 -272 976
WIRE -96 1008 -96 976
WIRE -96 1008 -272 1008
WIRE 160 1008 160 976
WIRE 160 1008 -96 1008
WIRE 1248 1008 1248 976
WIRE 1424 1008 1424 976
WIRE 1424 1008 1248 1008
WIRE 2400 1024 2400 992
WIRE 2576 1024 2576 992
WIRE 2576 1024 2400 1024
FLAG 176 496 0
FLAG -848 768 0
FLAG -352 912 0
FLAG -96 1008 0
FLAG 672 768 0
FLAG 1168 912 0
FLAG 1424 1008 0
FLAG 1488 400 LOAD
FLAG -96 400 LOAD
FLAG 1824 784 0
FLAG 2320 928 0
FLAG 2576 1024 0
FLAG 2640 416 LOAD
SYMBOL pmos -144 448 M270
WINDOW 3 56 72 Left 0
SYMATTR Value Si4427DY
SYMATTR InstName M7
SYMBOL pmos -608 448 R270
WINDOW 3 56 72 Left 0
SYMATTR Value Si4427DY
SYMATTR InstName M8
SYMBOL res 64 384 R90
WINDOW 0 0 56 VBottom 2
WINDOW 3 32 56 VTop 2
SYMATTR InstName R6
SYMATTR Value 3000
SYMBOL voltage -848 528 R0
WINDOW 123 0 0 Left 0
WINDOW 39 24 124 Left 2
SYMATTR InstName V8
SYMATTR Value 17
SYMBOL nmos -304 784 M0
SYMATTR InstName M9
SYMATTR Value Si7336ADP
SYMBOL voltage 160 880 R0
WINDOW 123 0 0 Left 0
WINDOW 39 0 0 Left 0
SYMATTR InstName V9
SYMATTR Value PULSE(0 10 160m 1u 1u 20m 160m 2)
SYMBOL res -128 848 R90
WINDOW 0 0 56 VBottom 2
WINDOW 3 32 56 VTop 2
SYMATTR InstName R12
SYMATTR Value 220
SYMBOL res -112 880 R0
SYMATTR InstName R13
SYMATTR Value 10000
SYMBOL cap -288 912 R0
SYMATTR InstName C4
SYMATTR Value 10p
SYMBOL res -720 480 R0
SYMATTR InstName R16
SYMATTR Value 10000
SYMBOL res -720 624 R0
SYMATTR InstName R18
SYMATTR Value 10000
SYMBOL zener -272 512 R180
WINDOW 0 24 64 Left 2
WINDOW 3 24 0 Left 2
SYMATTR InstName D3
SYMATTR Value BZX84C8V2L
SYMBOL res -672 384 R90
WINDOW 0 0 56 VBottom 2
WINDOW 3 32 56 VTop 2
SYMATTR InstName R14
SYMATTR Value 1
SYMBOL cap -432 528 R0
SYMATTR InstName C1
SYMATTR Value 10p
SYMBOL pmos 1376 448 M270
WINDOW 3 56 72 Left 0
SYMATTR Value Si4427DY
SYMATTR InstName M1
SYMBOL pmos 912 448 R270
WINDOW 3 56 72 Left 0
SYMATTR Value Si4427DY
SYMATTR InstName M2
SYMBOL voltage 672 528 R0
WINDOW 123 0 0 Left 0
WINDOW 39 24 124 Left 2
SYMATTR InstName V1
SYMATTR Value 11
SYMBOL nmos 1216 784 M0
SYMATTR InstName M3
SYMATTR Value Si7336ADP
SYMBOL res 1392 848 R90
WINDOW 0 0 56 VBottom 2
WINDOW 3 32 56 VTop 2
SYMATTR InstName R2
SYMATTR Value 220
SYMBOL res 1408 880 R0
SYMATTR InstName R3
SYMATTR Value 10000
SYMBOL cap 1232 912 R0
SYMATTR InstName C2
SYMATTR Value 10p
SYMBOL res 800 480 R0
SYMATTR InstName R4
SYMATTR Value 10000
SYMBOL res 800 624 R0
SYMATTR InstName R5
SYMATTR Value 10000
SYMBOL zener 1248 512 R180
WINDOW 0 24 64 Left 2
WINDOW 3 24 0 Left 2
SYMATTR InstName D1
SYMATTR Value BZX84C8V2L
SYMBOL res 848 384 R90
WINDOW 0 0 56 VBottom 2
WINDOW 3 32 56 VTop 2
SYMATTR InstName R7
SYMATTR Value 1
SYMBOL cap 1088 528 R0
SYMATTR InstName C3
SYMATTR Value 10p
SYMBOL pmos 2528 464 M270
WINDOW 3 56 72 Left 0
SYMATTR Value Si4427DY
SYMATTR InstName M4
SYMBOL pmos 2064 464 R270
WINDOW 3 56 72 Left 0
SYMATTR Value Si4427DY
SYMATTR InstName M5
SYMBOL voltage 1824 544 R0
WINDOW 123 0 0 Left 0
WINDOW 39 24 124 Left 2
SYMATTR InstName V2
SYMATTR Value 20
SYMBOL nmos 2368 800 M0
SYMATTR InstName M6
SYMATTR Value Si7336ADP
SYMBOL res 2544 864 R90
WINDOW 0 0 56 VBottom 2
WINDOW 3 32 56 VTop 2
SYMATTR InstName R1
SYMATTR Value 220
SYMBOL res 2560 896 R0
SYMATTR InstName R8
SYMATTR Value 10000
SYMBOL cap 2384 928 R0
SYMATTR InstName C5
SYMATTR Value 10p
SYMBOL res 1952 496 R0
SYMATTR InstName R9
SYMATTR Value 10000
SYMBOL res 1952 640 R0
SYMATTR InstName R10
SYMATTR Value 10000
SYMBOL zener 2400 528 R180
WINDOW 0 24 64 Left 2
WINDOW 3 24 0 Left 2
SYMATTR InstName D2
SYMATTR Value BZX84C8V2L
SYMBOL res 2000 400 R90
WINDOW 0 0 56 VBottom 2
WINDOW 3 32 56 VTop 2
SYMATTR InstName R11
SYMATTR Value 1
SYMBOL cap 2240 544 R0
SYMATTR InstName C6
SYMATTR Value 10p
TEXT -632 296 Left 2 ;THIS NEW GATE DRIVER SETUP WORKS - MAY 6
TEXT 888 296 Left 2 ;THIS NEW GATE DRIVER SETUP WORKS - MAY 6
TEXT -880 1048 Left 2 !.tran 600ms
TEXT 2040 312 Left 2 ;THIS NEW GATE DRIVER SETUP WORKS - MAY 6
