Version 4.1
SHEET 1 880 680
WIRE -128 96 -256 96
WIRE -16 96 -32 96
WIRE 48 96 -16 96
WIRE 64 96 48 96
WIRE 336 96 160 96
WIRE 448 96 336 96
WIRE -256 160 -256 96
WIRE 336 176 336 160
WIRE -112 192 -112 144
WIRE -16 192 -16 176
WIRE -16 192 -112 192
WIRE 48 192 48 160
WIRE 48 192 -16 192
WIRE 144 192 144 144
WIRE 144 192 48 192
WIRE 448 224 448 176
WIRE 336 288 336 256
WIRE 48 320 48 192
WIRE 48 384 48 320
FLAG -256 240 0
FLAG 448 224 0
FLAG 336 288 0
FLAG 48 464 0
FLAG 48 320 SWITCH
SYMBOL pmos -32 144 M270
WINDOW 3 56 72 Left 0
SYMATTR InstName M1
SYMATTR Value Si4427DY
SYMBOL pmos 64 144 R270
WINDOW 3 56 72 Left 0
SYMATTR InstName M2
SYMATTR Value Si4427DY
SYMBOL voltage -256 144 R0
WINDOW 123 0 0 Left 0
WINDOW 39 0 0 Left 0
SYMATTR InstName V1
SYMATTR Value PULSE(0 16 100ms 1u 1u 50ms 60ms 1)
SYMBOL res 432 80 R0
SYMATTR InstName R1
SYMATTR Value 100
SYMBOL res -32 80 R0
SYMATTR InstName R2
SYMATTR Value 10000
SYMBOL cap 32 96 R0
SYMATTR InstName C1
SYMATTR Value 0.1µ
SYMBOL voltage 336 160 R0
WINDOW 123 0 0 Left 0
WINDOW 39 0 0 Left 0
SYMATTR InstName V2
SYMATTR Value PULSE(0 16 200ms 1u 1u 200ms 205ms 1)
SYMBOL diode 352 160 R180
WINDOW 0 24 64 Left 2
WINDOW 3 24 0 Left 2
SYMATTR InstName D1
SYMBOL voltage 48 368 R0
WINDOW 123 0 0 Left 0
WINDOW 39 0 0 Left 0
SYMATTR InstName V3
SYMATTR Value PULSE(0 16 160ms 1u 1u 1 2 1)
TEXT -304 -96 Left 2 !.tran 500ms
