Version 4.1
SHEET 1 1672 2276
WIRE -224 96 -256 96
WIRE -128 96 -144 96
WIRE -16 96 -32 96
WIRE 48 96 -16 96
WIRE 64 96 48 96
WIRE 336 96 160 96
WIRE 448 96 336 96
WIRE -1088 112 -1152 112
WIRE -960 112 -1008 112
WIRE -768 112 -864 112
WIRE -560 112 -688 112
WIRE -256 160 -256 96
WIRE 336 176 336 160
WIRE -112 192 -112 144
WIRE -16 192 -16 176
WIRE -16 192 -112 192
WIRE 48 192 48 160
WIRE 48 192 -16 192
WIRE 144 192 144 144
WIRE 144 192 48 192
WIRE -1152 224 -1152 112
WIRE -944 224 -944 160
WIRE 448 224 448 176
WIRE 336 288 336 256
WIRE -560 320 -560 112
WIRE 48 320 48 192
WIRE -1152 352 -1152 304
WIRE -944 368 -944 304
WIRE 48 384 48 320
WIRE 256 800 176 800
WIRE 416 800 336 800
WIRE 560 800 512 800
WIRE 672 800 560 800
WIRE 720 800 672 800
WIRE 784 800 720 800
WIRE 1152 800 880 800
WIRE 1328 800 1152 800
WIRE -1312 816 -1392 816
WIRE -1152 816 -1232 816
WIRE -1040 816 -1056 816
WIRE -864 816 -1040 816
WIRE -784 816 -864 816
WIRE -576 816 -688 816
WIRE -368 816 -496 816
WIRE 560 848 560 800
WIRE 720 848 720 800
WIRE 1328 848 1328 800
WIRE -896 864 -1072 864
WIRE -1040 896 -1040 816
WIRE -1040 896 -1248 896
WIRE 672 896 672 800
WIRE -1248 912 -1248 896
WIRE -368 912 -368 816
WIRE -864 944 -864 816
WIRE 176 944 176 800
WIRE -1392 960 -1392 816
WIRE 496 960 496 848
WIRE 560 960 560 928
WIRE 560 960 496 960
WIRE 672 960 560 960
WIRE 720 960 720 912
WIRE 720 960 672 960
WIRE 800 960 800 848
WIRE 800 960 720 960
WIRE 1328 976 1328 928
WIRE -1248 1024 -1248 992
WIRE -1104 1024 -1248 1024
WIRE -896 1024 -896 864
WIRE -896 1024 -1024 1024
WIRE -864 1024 -864 1008
WIRE -864 1024 -896 1024
WIRE -768 1024 -768 864
WIRE -768 1024 -864 1024
WIRE 672 1040 672 960
WIRE -1248 1072 -1248 1024
WIRE -1248 1168 -1248 1136
WIRE -1152 1168 -1248 1168
WIRE -896 1168 -1152 1168
WIRE 176 1168 176 1024
WIRE -1392 1184 -1392 1040
WIRE 672 1184 672 1120
WIRE -896 1200 -896 1168
WIRE -1152 1232 -1152 1168
WIRE 800 1264 720 1264
WIRE 928 1264 880 1264
WIRE 1056 1264 928 1264
WIRE 1184 1264 1056 1264
WIRE -768 1280 -848 1280
WIRE -640 1280 -688 1280
WIRE -512 1280 -640 1280
WIRE -384 1280 -512 1280
WIRE 928 1296 928 1264
WIRE 1184 1296 1184 1264
WIRE -640 1312 -640 1280
WIRE -384 1312 -384 1280
WIRE 672 1312 672 1280
WIRE 1056 1312 1056 1264
WIRE -1152 1328 -1152 1296
WIRE -896 1328 -896 1296
WIRE -896 1328 -1152 1328
WIRE -512 1328 -512 1280
WIRE 928 1408 928 1376
WIRE 1056 1408 1056 1376
WIRE 1056 1408 928 1408
WIRE 1184 1408 1184 1376
WIRE 1184 1408 1056 1408
WIRE -640 1424 -640 1392
WIRE -512 1424 -512 1392
WIRE -512 1424 -640 1424
WIRE -384 1424 -384 1392
WIRE -384 1424 -512 1424
WIRE 320 1648 208 1648
WIRE 448 1648 400 1648
WIRE 592 1648 544 1648
WIRE 704 1648 592 1648
WIRE 752 1648 704 1648
WIRE 816 1648 752 1648
WIRE 1152 1648 912 1648
WIRE 592 1696 592 1648
WIRE 752 1696 752 1648
WIRE 704 1744 704 1648
WIRE 208 1792 208 1648
WIRE 528 1808 528 1696
WIRE 592 1808 592 1776
WIRE 592 1808 528 1808
WIRE 704 1808 592 1808
WIRE 752 1808 752 1760
WIRE 752 1808 704 1808
WIRE 832 1808 832 1696
WIRE 832 1808 752 1808
WIRE 704 1888 704 1808
WIRE 208 2016 208 1872
WIRE 704 2032 704 1968
WIRE 832 2112 752 2112
WIRE 960 2112 912 2112
WIRE 1088 2112 960 2112
WIRE 960 2144 960 2112
WIRE 704 2160 704 2128
WIRE 1088 2160 1088 2112
WIRE 960 2256 960 2224
WIRE 1088 2256 1088 2224
WIRE 1088 2256 960 2256
FLAG -256 240 0
FLAG 448 224 0
FLAG 336 288 0
FLAG 48 464 0
FLAG 48 320 SWITCH
FLAG -1152 352 0
FLAG -560 320 0
FLAG -944 368 0
FLAG -368 912 0
FLAG -1392 1184 0
FLAG -896 1328 0
FLAG -640 1424 0
FLAG 176 1168 0
FLAG 672 1312 0
FLAG 928 1408 0
FLAG 208 2016 0
FLAG 704 2160 0
FLAG 960 2256 0
FLAG 1328 976 0
FLAG 1152 800 LOAD
FLAG 1152 1648 LOAD
SYMBOL pmos -32 144 M270
WINDOW 3 56 72 Left 0
SYMATTR Value Si4427DY
SYMATTR InstName M1
SYMBOL pmos 64 144 R270
WINDOW 3 56 72 Left 0
SYMATTR Value Si4427DY
SYMATTR InstName M2
SYMBOL voltage -256 144 R0
WINDOW 123 0 0 Left 0
WINDOW 39 0 0 Left 0
SYMATTR InstName V1
SYMATTR Value PULSE(0 16 100ms 1u 1u 50ms 60ms 1)
SYMBOL res 432 80 R0
SYMATTR InstName R1
SYMATTR Value 20
SYMBOL res -32 80 R0
SYMATTR InstName R2
SYMATTR Value 10000
SYMBOL cap 32 96 R0
SYMATTR InstName C1
SYMATTR Value 0.1µ
SYMBOL voltage 336 160 R0
WINDOW 123 0 0 Left 0
WINDOW 39 0 0 Left 0
SYMATTR InstName V2
SYMATTR Value PULSE(0 30 200ms 1u 1u 200ms 205ms 1)
SYMBOL diode 352 160 R180
WINDOW 0 24 64 Left 2
WINDOW 3 24 0 Left 2
SYMATTR InstName D1
SYMBOL voltage 48 368 R0
WINDOW 123 0 0 Left 0
WINDOW 39 0 0 Left 0
SYMATTR InstName V3
SYMATTR Value PULSE(0 16 160ms 1u 1u 1 2 1)
SYMBOL res -128 80 R90
WINDOW 0 0 56 VBottom 2
WINDOW 3 32 56 VTop 2
SYMATTR InstName R4
SYMATTR Value 10
SYMBOL pmos -864 160 M270
WINDOW 3 56 72 Left 0
SYMATTR Value Si4427DY
SYMATTR InstName M3
SYMBOL res -992 96 R90
WINDOW 0 0 56 VBottom 2
WINDOW 3 32 56 VTop 2
SYMATTR InstName R3
SYMATTR Value 100
SYMBOL res -672 96 R90
WINDOW 0 0 56 VBottom 2
WINDOW 3 32 56 VTop 2
SYMATTR InstName R5
SYMATTR Value 100
SYMBOL voltage -944 208 R0
WINDOW 123 0 0 Left 0
WINDOW 39 0 0 Left 0
SYMATTR InstName V6
SYMATTR Value PULSE(0 16 100ms 1u 1u 50ms 60ms 1)
SYMBOL voltage -1152 208 R0
WINDOW 123 0 0 Left 0
WINDOW 39 0 0 Left 0
SYMATTR InstName V4
SYMATTR Value 16
SYMBOL pmos -688 864 M270
WINDOW 3 56 72 Left 0
SYMATTR Value Si4427DY
SYMATTR InstName M4
SYMBOL pmos -1152 864 R270
WINDOW 3 56 72 Left 0
SYMATTR Value Si4427DY
SYMATTR InstName M5
SYMBOL res -480 800 R90
WINDOW 0 0 56 VBottom 2
WINDOW 3 32 56 VTop 2
SYMATTR InstName R7
SYMATTR Value 3000
SYMBOL cap -880 944 R0
SYMATTR InstName C2
SYMATTR Value 0.1µ
SYMBOL voltage -1392 944 R0
WINDOW 123 0 0 Left 0
WINDOW 39 0 0 Left 0
SYMATTR InstName V5
SYMATTR Value 17
SYMBOL nmos -848 1200 M0
SYMATTR InstName M6
SYMATTR Value Si7336ADP
SYMBOL voltage -384 1296 R0
WINDOW 123 0 0 Left 0
WINDOW 39 0 0 Left 0
SYMATTR InstName V7
SYMATTR Value PULSE(0 10 160m 1u 1u 20m 40m 2)
SYMBOL res -672 1264 R90
WINDOW 0 0 56 VBottom 2
WINDOW 3 32 56 VTop 2
SYMATTR InstName R10
SYMATTR Value 1
SYMBOL res -656 1296 R0
SYMATTR InstName R11
SYMATTR Value 10000
SYMBOL cap -528 1328 R0
SYMATTR InstName C3
SYMATTR Value 10p
SYMBOL pmos 880 848 M270
WINDOW 3 56 72 Left 0
SYMATTR Value Si4427DY
SYMATTR InstName M7
SYMBOL pmos 416 848 R270
WINDOW 3 56 72 Left 0
SYMATTR Value Si4427DY
SYMATTR InstName M8
SYMBOL res 544 832 R0
SYMATTR InstName R12
SYMATTR Value 10000
SYMBOL cap 704 848 R0
SYMATTR InstName C4
SYMATTR Value 0.1µ
SYMBOL voltage 176 928 R0
WINDOW 123 0 0 Left 0
WINDOW 39 0 0 Left 0
SYMATTR InstName V8
SYMATTR Value 17
SYMBOL zener 688 960 R180
WINDOW 0 26 93 Left 2
WINDOW 3 24 0 Left 2
SYMATTR InstName D3
SYMATTR Value BZX84C8V2L
SYMBOL res 656 1024 R0
SYMATTR InstName R13
SYMATTR Value 10
SYMBOL nmos 720 1184 M0
SYMATTR InstName M9
SYMATTR Value Si7336ADP
SYMBOL voltage 1184 1280 R0
WINDOW 123 0 0 Left 0
WINDOW 39 0 0 Left 0
SYMATTR InstName V9
SYMATTR Value PULSE(0 10 160m 1u 1u 20m 40m 2)
SYMBOL res 896 1248 R90
WINDOW 0 0 56 VBottom 2
WINDOW 3 32 56 VTop 2
SYMATTR InstName R14
SYMATTR Value 220
SYMBOL res 912 1280 R0
SYMATTR InstName R15
SYMATTR Value 10000
SYMBOL cap 1040 1312 R0
SYMATTR InstName C5
SYMATTR Value 10p
SYMBOL pmos 912 1696 M270
WINDOW 3 56 72 Left 0
SYMATTR Value Si4427DY
SYMATTR InstName M10
SYMBOL pmos 448 1696 R270
WINDOW 3 56 72 Left 0
SYMATTR Value Si4427DY
SYMATTR InstName M11
SYMBOL res 576 1680 R0
SYMATTR InstName R17
SYMATTR Value 10000
SYMBOL cap 736 1696 R0
SYMATTR InstName C6
SYMATTR Value 0.1µ
SYMBOL voltage 208 1776 R0
WINDOW 123 0 0 Left 0
WINDOW 39 0 0 Left 0
SYMATTR InstName V10
SYMATTR Value 17
SYMBOL zener 720 1808 R180
WINDOW 0 26 93 Left 2
WINDOW 3 24 0 Left 2
SYMATTR InstName D4
SYMATTR Value BZX84C8V2L
SYMBOL res 688 1872 R0
SYMATTR InstName R18
SYMATTR Value 10
SYMBOL nmos 752 2032 M0
SYMATTR InstName M12
SYMATTR Value Si7336ADP
SYMBOL res 928 2096 R90
WINDOW 0 0 56 VBottom 2
WINDOW 3 32 56 VTop 2
SYMATTR InstName R19
SYMATTR Value 220
SYMBOL res 944 2128 R0
SYMATTR InstName R20
SYMATTR Value 10000
SYMBOL cap 1072 2160 R0
SYMATTR InstName C7
SYMATTR Value 10p
SYMBOL res 1312 832 R0
SYMATTR InstName R16
SYMATTR Value 3000
SYMBOL res 416 1632 R90
WINDOW 0 0 56 VBottom 2
WINDOW 3 32 56 VTop 2
SYMATTR InstName R6
SYMATTR Value 1
SYMBOL res 352 784 R90
WINDOW 0 0 56 VBottom 2
WINDOW 3 32 56 VTop 2
SYMATTR InstName R21
SYMATTR Value 1
SYMBOL res -1216 800 R90
WINDOW 0 0 56 VBottom 2
WINDOW 3 32 56 VTop 2
SYMATTR InstName R22
SYMATTR Value 1
SYMBOL zener -1232 1136 R180
WINDOW 0 24 64 Left 2
WINDOW 3 24 0 Left 2
SYMATTR InstName D2
SYMATTR Value BZX84C8V2L
SYMBOL res -1008 1008 R90
WINDOW 0 0 56 VBottom 2
WINDOW 3 32 56 VTop 2
SYMATTR InstName R8
SYMATTR Value 220
SYMBOL res -1264 896 R0
SYMATTR InstName R23
SYMATTR Value 10000
SYMBOL cap -1168 1232 R0
SYMATTR InstName C8
SYMATTR Value 10n
TEXT -304 -96 Left 2 !.tran 500ms
TEXT -1176 712 Left 2 ;THIS NEW GATE DRIVER SETUP WORKS - MAY 5
TEXT 392 696 Left 2 ;THIS NEW GATE DRIVER SETUP WORKS - MAY 5
