Version 4.1
SHEET 1 880 1668
WIRE -224 96 -256 96
WIRE -128 96 -144 96
WIRE -16 96 -32 96
WIRE 48 96 -16 96
WIRE 64 96 48 96
WIRE 336 96 160 96
WIRE 448 96 336 96
WIRE -1088 112 -1152 112
WIRE -960 112 -1008 112
WIRE -768 112 -864 112
WIRE -560 112 -688 112
WIRE -256 160 -256 96
WIRE 336 176 336 160
WIRE -112 192 -112 144
WIRE -16 192 -16 176
WIRE -16 192 -112 192
WIRE 48 192 48 160
WIRE 48 192 -16 192
WIRE 144 192 144 144
WIRE 144 192 48 192
WIRE -1152 224 -1152 112
WIRE -944 224 -944 160
WIRE 448 224 448 176
WIRE 336 288 336 256
WIRE -560 320 -560 112
WIRE 48 320 48 192
WIRE -1152 352 -1152 304
WIRE -944 368 -944 304
WIRE 48 384 48 320
WIRE -1312 816 -1392 816
WIRE -1152 816 -1232 816
WIRE -1008 816 -1056 816
WIRE -848 816 -1008 816
WIRE -784 816 -848 816
WIRE -640 816 -688 816
WIRE -576 816 -640 816
WIRE -368 816 -496 816
WIRE -1008 864 -1008 816
WIRE -848 864 -848 816
WIRE -368 912 -368 816
WIRE -1392 960 -1392 816
WIRE -1136 976 -1136 864
WIRE -1008 976 -1008 944
WIRE -1008 976 -1136 976
WIRE -912 976 -1008 976
WIRE -848 976 -848 928
WIRE -848 976 -912 976
WIRE -704 976 -704 864
WIRE -704 976 -848 976
WIRE -912 1056 -912 976
WIRE -912 1056 -928 1056
WIRE -544 1056 -912 1056
WIRE -1392 1184 -1392 1040
WIRE -544 1232 -544 1056
WIRE -400 1232 -544 1232
WIRE -272 1232 -336 1232
WIRE -144 1232 -272 1232
WIRE -144 1264 -144 1232
WIRE -1312 1280 -1392 1280
WIRE -1152 1280 -1232 1280
WIRE -1008 1280 -1056 1280
WIRE -848 1280 -1008 1280
WIRE -784 1280 -848 1280
WIRE -640 1280 -640 816
WIRE -640 1280 -688 1280
WIRE -1008 1328 -1008 1280
WIRE -848 1328 -848 1280
WIRE -1392 1424 -1392 1280
WIRE -144 1424 -144 1344
WIRE -1136 1440 -1136 1328
WIRE -1008 1440 -1008 1408
WIRE -1008 1440 -1136 1440
WIRE -912 1440 -1008 1440
WIRE -848 1440 -848 1392
WIRE -848 1440 -912 1440
WIRE -704 1440 -704 1328
WIRE -704 1440 -848 1440
WIRE -912 1520 -912 1440
WIRE -272 1520 -272 1232
WIRE -272 1520 -912 1520
WIRE -1392 1648 -1392 1504
FLAG -256 240 0
FLAG 448 224 0
FLAG 336 288 0
FLAG 48 464 0
FLAG 48 320 SWITCH
FLAG -1152 352 0
FLAG -560 320 0
FLAG -944 368 0
FLAG -1392 1184 0
FLAG -1392 1648 0
FLAG -144 1424 0
FLAG -368 912 0
SYMBOL pmos -32 144 M270
WINDOW 3 56 72 Left 0
SYMATTR Value Si4427DY
SYMATTR InstName M1
SYMBOL pmos 64 144 R270
WINDOW 3 56 72 Left 0
SYMATTR Value Si4427DY
SYMATTR InstName M2
SYMBOL voltage -256 144 R0
WINDOW 123 0 0 Left 0
WINDOW 39 0 0 Left 0
SYMATTR InstName V1
SYMATTR Value PULSE(0 16 100ms 1u 1u 50ms 60ms 1)
SYMBOL res 432 80 R0
SYMATTR InstName R1
SYMATTR Value 20
SYMBOL res -32 80 R0
SYMATTR InstName R2
SYMATTR Value 10000
SYMBOL cap 32 96 R0
SYMATTR InstName C1
SYMATTR Value 0.1µ
SYMBOL voltage 336 160 R0
WINDOW 123 0 0 Left 0
WINDOW 39 0 0 Left 0
SYMATTR InstName V2
SYMATTR Value PULSE(0 30 200ms 1u 1u 200ms 205ms 1)
SYMBOL diode 352 160 R180
WINDOW 0 24 64 Left 2
WINDOW 3 24 0 Left 2
SYMATTR InstName D1
SYMBOL voltage 48 368 R0
WINDOW 123 0 0 Left 0
WINDOW 39 0 0 Left 0
SYMATTR InstName V3
SYMATTR Value PULSE(0 16 160ms 1u 1u 1 2 1)
SYMBOL res -128 80 R90
WINDOW 0 0 56 VBottom 2
WINDOW 3 32 56 VTop 2
SYMATTR InstName R4
SYMATTR Value 10
SYMBOL pmos -864 160 M270
WINDOW 3 56 72 Left 0
SYMATTR Value Si4427DY
SYMATTR InstName M3
SYMBOL res -992 96 R90
WINDOW 0 0 56 VBottom 2
WINDOW 3 32 56 VTop 2
SYMATTR InstName R3
SYMATTR Value 100
SYMBOL res -672 96 R90
WINDOW 0 0 56 VBottom 2
WINDOW 3 32 56 VTop 2
SYMATTR InstName R5
SYMATTR Value 100
SYMBOL voltage -944 208 R0
WINDOW 123 0 0 Left 0
WINDOW 39 0 0 Left 0
SYMATTR InstName V6
SYMATTR Value PULSE(0 16 100ms 1u 1u 50ms 60ms 1)
SYMBOL voltage -1152 208 R0
WINDOW 123 0 0 Left 0
WINDOW 39 0 0 Left 0
SYMATTR InstName V4
SYMATTR Value 16
SYMBOL pmos -1056 864 M270
WINDOW 3 56 72 Left 0
SYMATTR Value Si4427DY
SYMATTR InstName M4
SYMBOL pmos -784 864 R270
WINDOW 3 56 72 Left 0
SYMATTR Value Si4427DY
SYMATTR InstName M5
SYMBOL res -1216 800 R90
WINDOW 0 0 56 VBottom 2
WINDOW 3 32 56 VTop 2
SYMATTR InstName R6
SYMATTR Value 100
SYMBOL res -480 800 R90
WINDOW 0 0 56 VBottom 2
WINDOW 3 32 56 VTop 2
SYMATTR InstName R7
SYMATTR Value 3000
SYMBOL res -1024 848 R0
SYMATTR InstName R8
SYMATTR Value 10000
SYMBOL cap -864 864 R0
SYMATTR InstName C2
SYMATTR Value 0.1µ
SYMBOL voltage -1392 944 R0
WINDOW 123 0 0 Left 0
WINDOW 39 0 0 Left 0
SYMATTR InstName V5
SYMATTR Value 17
SYMBOL pmos -1056 1328 M270
WINDOW 3 56 72 Left 0
SYMATTR Value Si4427DY
SYMATTR InstName M6
SYMBOL pmos -784 1328 R270
WINDOW 3 56 72 Left 0
SYMATTR Value Si4427DY
SYMATTR InstName M7
SYMBOL res -1216 1264 R90
WINDOW 0 0 56 VBottom 2
WINDOW 3 32 56 VTop 2
SYMATTR InstName R9
SYMATTR Value 100
SYMBOL res -1024 1312 R0
SYMATTR InstName R11
SYMATTR Value 10000
SYMBOL cap -864 1328 R0
SYMATTR InstName C3
SYMATTR Value 0.1µ
SYMBOL voltage -144 1248 R0
WINDOW 123 0 0 Left 0
WINDOW 39 0 0 Left 0
WINDOW 3 44 91 Left 2
SYMATTR InstName V10
SYMATTR Value PULSE(0 16 100ms 1u 1u 50ms 60ms 1)
SYMBOL Digital\\inv -336 1168 M0
WINDOW 3 8 60 Left 2
SYMATTR InstName A1
SYMATTR Value Vhigh = 16
SYMBOL voltage -1392 1408 R0
WINDOW 123 0 0 Left 0
WINDOW 39 0 0 Left 0
SYMATTR InstName V7
SYMATTR Value 17
TEXT -304 -96 Left 2 !.tran 500ms
TEXT -992 712 Left 2 ;THIS SWITCH WORKS
