Version 4.1
SHEET 1 6740 1972
WIRE -688 -1504 -992 -1504
WIRE -592 -1504 -608 -1504
WIRE -416 -1504 -592 -1504
WIRE -384 -1504 -416 -1504
WIRE -816 -1424 -992 -1424
WIRE -720 -1424 -736 -1424
WIRE -432 -1424 -720 -1424
WIRE -384 -1424 -432 -1424
WIRE -944 -1344 -992 -1344
WIRE -848 -1344 -864 -1344
WIRE -448 -1344 -848 -1344
WIRE -384 -1344 -448 -1344
WIRE 1232 -1344 1216 -1344
WIRE 560 -1312 512 -1312
WIRE 1216 -1312 1216 -1344
WIRE 560 -1296 560 -1312
WIRE -928 -1264 -928 -1296
WIRE -800 -1264 -800 -1376
WIRE -672 -1264 -672 -1456
WIRE 512 -1248 512 -1312
WIRE 656 -1248 640 -1248
WIRE -416 -1232 -416 -1504
WIRE -288 -1232 -416 -1232
WIRE -160 -1232 -224 -1232
WIRE -96 -1216 -96 -1232
WIRE -16 -1216 -96 -1216
WIRE 1216 -1216 1216 -1232
WIRE -16 -1200 -96 -1200
WIRE 144 -1200 48 -1200
WIRE 432 -1200 144 -1200
WIRE 640 -1200 640 -1248
WIRE 640 -1200 592 -1200
WIRE 944 -1200 736 -1200
WIRE 1040 -1200 944 -1200
WIRE 1168 -1200 1120 -1200
WIRE -432 -1184 -432 -1424
WIRE -288 -1184 -432 -1184
WIRE -160 -1184 -224 -1184
WIRE -96 -1184 -96 -1200
WIRE -16 -1184 -80 -1184
WIRE -16 -1168 -64 -1168
WIRE 944 -1168 944 -1200
WIRE 144 -1152 144 -1200
WIRE 160 -1152 144 -1152
WIRE 272 -1152 224 -1152
WIRE 432 -1152 400 -1152
WIRE 736 -1152 736 -1200
WIRE 736 -1152 608 -1152
WIRE -448 -1136 -448 -1344
WIRE -288 -1136 -448 -1136
WIRE -160 -1136 -224 -1136
WIRE -80 -1136 -80 -1184
WIRE -80 -1136 -96 -1136
WIRE -16 -1136 -16 -1152
WIRE 0 -1136 0 -1152
WIRE 0 -1136 -16 -1136
WIRE 272 -1136 256 -1136
WIRE 400 -1136 400 -1152
WIRE 400 -1136 336 -1136
WIRE -928 -1120 -928 -1184
WIRE -928 -1120 -960 -1120
WIRE -800 -1120 -800 -1184
WIRE -800 -1120 -928 -1120
WIRE -672 -1120 -672 -1184
WIRE -672 -1120 -800 -1120
WIRE 256 -1120 256 -1136
WIRE 272 -1120 256 -1120
WIRE 256 -1104 256 -1120
WIRE 272 -1104 256 -1104
WIRE -288 -1088 -336 -1088
WIRE -160 -1088 -224 -1088
WIRE -64 -1088 -64 -1168
WIRE -64 -1088 -96 -1088
WIRE 160 -1088 112 -1088
WIRE 272 -1088 224 -1088
WIRE 432 -1088 432 -1104
WIRE 512 -1088 512 -1104
WIRE 256 -1072 256 -1104
WIRE 288 -1072 288 -1088
WIRE 288 -1072 256 -1072
WIRE -800 -1056 -800 -1120
WIRE 640 -1056 640 -1200
WIRE 672 -1056 640 -1056
WIRE 944 -1056 944 -1088
WIRE 1216 -1056 1216 -1120
WIRE 1232 -1056 1216 -1056
WIRE 736 -1040 736 -1056
WIRE 768 -1040 736 -1040
WIRE 768 -1024 752 -1024
WIRE 864 -1024 832 -1024
WIRE 672 -1008 624 -1008
WIRE 768 -1008 736 -1008
WIRE 752 -992 752 -1024
WIRE 768 -992 752 -992
WIRE 1392 -976 1328 -976
WIRE 1520 -976 1472 -976
WIRE 1616 -976 1584 -976
WIRE 672 -960 608 -960
WIRE 768 -960 768 -976
WIRE 768 -960 736 -960
WIRE -800 -944 -800 -976
WIRE 528 -944 448 -944
WIRE 608 -944 608 -960
WIRE 608 -944 592 -944
WIRE 752 -944 752 -992
WIRE 784 -944 784 -976
WIRE 784 -944 752 -944
WIRE 864 -944 864 -1024
WIRE 896 -944 864 -944
WIRE 528 -912 448 -912
WIRE 640 -896 640 -1056
WIRE 672 -896 640 -896
WIRE 960 -896 960 -944
WIRE 1008 -896 960 -896
WIRE 736 -880 736 -896
WIRE 768 -880 736 -880
WIRE 1008 -880 992 -880
WIRE 1088 -880 1072 -880
WIRE 1216 -880 1168 -880
WIRE 1328 -880 1328 -976
WIRE 1328 -880 1216 -880
WIRE 1456 -880 1328 -880
WIRE 1616 -880 1616 -976
WIRE 1616 -880 1536 -880
WIRE 1632 -880 1616 -880
WIRE 1728 -880 1632 -880
WIRE 768 -864 752 -864
WIRE 896 -864 832 -864
WIRE 1008 -864 960 -864
WIRE 672 -848 624 -848
WIRE 768 -848 736 -848
WIRE 992 -848 992 -880
WIRE 1008 -848 992 -848
WIRE 752 -832 752 -864
WIRE 768 -832 752 -832
WIRE 1008 -832 960 -832
WIRE 992 -816 992 -848
WIRE 1024 -816 1024 -832
WIRE 1024 -816 992 -816
WIRE 672 -800 608 -800
WIRE 768 -800 768 -816
WIRE 768 -800 736 -800
WIRE 1632 -800 1632 -880
WIRE 528 -784 448 -784
WIRE 608 -784 608 -800
WIRE 608 -784 592 -784
WIRE 752 -784 752 -832
WIRE 784 -784 784 -816
WIRE 784 -784 752 -784
WIRE 896 -784 864 -784
WIRE 960 -784 960 -832
WIRE 528 -752 448 -752
WIRE 640 -736 640 -896
WIRE 672 -736 640 -736
WIRE 736 -720 736 -736
WIRE 768 -720 736 -720
WIRE 1632 -720 1632 -736
WIRE 768 -704 752 -704
WIRE 864 -704 864 -784
WIRE 864 -704 832 -704
WIRE 672 -688 624 -688
WIRE 768 -688 736 -688
WIRE 752 -672 752 -704
WIRE 768 -672 752 -672
WIRE 1392 -656 1328 -656
WIRE 1520 -656 1472 -656
WIRE 1616 -656 1584 -656
WIRE 672 -640 608 -640
WIRE 768 -640 768 -656
WIRE 768 -640 736 -640
WIRE 2208 -640 2144 -640
WIRE 2336 -640 2288 -640
WIRE 2464 -640 2432 -640
WIRE 2576 -640 2464 -640
WIRE 2688 -640 2576 -640
WIRE 2720 -640 2688 -640
WIRE 2976 -640 2816 -640
WIRE 528 -624 448 -624
WIRE 608 -624 608 -640
WIRE 608 -624 592 -624
WIRE 752 -624 752 -672
WIRE 784 -624 784 -656
WIRE 784 -624 752 -624
WIRE 528 -592 448 -592
WIRE 2688 -592 2688 -640
WIRE 2464 -576 2464 -640
WIRE 1216 -560 1216 -880
WIRE 1328 -560 1328 -656
WIRE 1328 -560 1216 -560
WIRE 1456 -560 1328 -560
WIRE 1616 -560 1616 -656
WIRE 1616 -560 1536 -560
WIRE 1632 -560 1616 -560
WIRE 1728 -560 1632 -560
WIRE 2576 -560 2576 -640
WIRE 1216 -512 1216 -560
WIRE 1632 -480 1632 -560
WIRE 2416 -464 2416 -592
WIRE 2464 -464 2464 -496
WIRE 2464 -464 2416 -464
WIRE 2576 -464 2576 -496
WIRE 2576 -464 2464 -464
WIRE 2688 -464 2688 -528
WIRE 2688 -464 2576 -464
WIRE 2736 -464 2736 -592
WIRE 2736 -464 2688 -464
WIRE 2800 -464 2736 -464
WIRE 2464 -416 2464 -464
WIRE 2688 -416 2688 -464
WIRE 1216 -400 1216 -432
WIRE 1632 -400 1632 -416
WIRE 2688 -304 2688 -336
WIRE 2464 -288 2464 -336
WIRE 2208 -208 2128 -208
WIRE 2272 -208 2208 -208
WIRE 2384 -208 2352 -208
WIRE 2416 -208 2384 -208
WIRE 2208 -176 2208 -208
WIRE 2384 -176 2384 -208
WIRE -176 -144 -256 -144
WIRE 608 -144 -176 -144
WIRE 736 -144 608 -144
WIRE 1296 -144 816 -144
WIRE 1328 -144 1296 -144
WIRE 128 -64 48 -64
WIRE 688 -64 128 -64
WIRE 752 -64 688 -64
WIRE 1088 -64 832 -64
WIRE 1328 -64 1088 -64
WIRE 2208 -48 2208 -96
WIRE 2384 -48 2384 -112
WIRE 2464 -48 2464 -192
WIRE 368 16 320 16
WIRE 768 16 368 16
WIRE 880 16 768 16
WIRE 960 16 880 16
WIRE 1328 16 1040 16
WIRE 320 48 320 16
WIRE 1296 48 1296 -144
WIRE 2224 80 2144 80
WIRE 2336 80 2304 80
WIRE 2464 80 2432 80
WIRE 2576 80 2464 80
WIRE 2688 80 2576 80
WIRE 2720 80 2688 80
WIRE 2976 80 2976 -640
WIRE 2976 80 2816 80
WIRE 48 128 48 -64
WIRE 2688 128 2688 80
WIRE 2464 144 2464 80
WIRE 1296 160 1296 128
WIRE 1344 160 1296 160
WIRE 1456 160 1424 160
WIRE 1472 160 1456 160
WIRE 2576 160 2576 80
WIRE 320 176 320 128
WIRE -256 192 -256 -144
WIRE 608 192 608 -144
WIRE 688 192 688 -64
WIRE 768 192 768 16
WIRE 1296 192 1296 160
WIRE 1456 208 1456 160
WIRE 48 256 48 208
WIRE 2416 256 2416 128
WIRE 2464 256 2464 224
WIRE 2464 256 2416 256
WIRE 2576 256 2576 224
WIRE 2576 256 2464 256
WIRE 2688 256 2688 192
WIRE 2688 256 2576 256
WIRE 2736 256 2736 128
WIRE 2736 256 2688 256
WIRE 2800 256 2736 256
WIRE 1296 288 1296 272
WIRE 1456 288 1456 272
WIRE 608 304 608 256
WIRE 688 304 688 256
WIRE 688 304 608 304
WIRE 768 304 768 256
WIRE 768 304 688 304
WIRE 2464 304 2464 256
WIRE 2688 304 2688 256
WIRE 1088 320 1088 -64
WIRE -256 336 -256 272
WIRE 2688 416 2688 384
WIRE 1088 432 1088 400
WIRE 1136 432 1088 432
WIRE 1248 432 1216 432
WIRE 1264 432 1248 432
WIRE 2464 432 2464 384
WIRE 1088 464 1088 432
WIRE 1248 480 1248 432
WIRE 2208 512 2128 512
WIRE 2272 512 2208 512
WIRE 2384 512 2352 512
WIRE 2416 512 2384 512
WIRE 2208 544 2208 512
WIRE 2384 544 2384 512
WIRE 1088 560 1088 544
WIRE 1248 560 1248 544
WIRE -144 608 -192 608
WIRE -112 608 -144 608
WIRE 176 608 144 608
WIRE 240 608 176 608
WIRE 336 608 240 608
WIRE 880 608 880 16
WIRE 240 624 240 608
WIRE 2208 672 2208 624
WIRE 2384 672 2384 608
WIRE 2464 672 2464 528
WIRE -144 704 -144 608
WIRE -112 704 -144 704
WIRE 240 720 240 688
WIRE 880 720 880 688
WIRE 928 720 880 720
WIRE 1040 720 1008 720
WIRE 1056 720 1040 720
WIRE 880 752 880 720
WIRE 1040 768 1040 720
WIRE 2208 784 2144 784
WIRE 2336 784 2288 784
WIRE 2464 784 2432 784
WIRE 2576 784 2464 784
WIRE 2688 784 2576 784
WIRE 2720 784 2688 784
WIRE 2976 784 2976 80
WIRE 2976 784 2816 784
WIRE 3136 784 2976 784
WIRE 3392 784 3136 784
WIRE -192 800 -224 800
WIRE -112 800 -128 800
WIRE 176 800 176 608
WIRE 176 800 144 800
WIRE 2688 832 2688 784
WIRE 3136 832 3136 784
WIRE 880 848 880 832
WIRE 1040 848 1040 832
WIRE 2464 848 2464 784
WIRE 3392 848 3392 784
WIRE -224 864 -224 800
WIRE 2576 864 2576 784
WIRE 16 880 16 864
WIRE 1280 944 1264 944
WIRE 1296 944 1280 944
WIRE 2416 960 2416 832
WIRE 2464 960 2464 928
WIRE 2464 960 2416 960
WIRE 2576 960 2576 928
WIRE 2576 960 2464 960
WIRE 2688 960 2688 896
WIRE 2688 960 2576 960
WIRE 2736 960 2736 832
WIRE 2736 960 2688 960
WIRE 2800 960 2736 960
WIRE 928 976 912 976
WIRE 1632 976 1616 976
WIRE 3136 976 3136 912
WIRE 2464 1008 2464 960
WIRE 2688 1008 2688 960
WIRE 816 1072 768 1072
WIRE 912 1072 912 976
WIRE 912 1072 880 1072
WIRE 1120 1072 1072 1072
WIRE 1184 1088 1152 1088
WIRE 1264 1088 1264 944
WIRE 1264 1088 1248 1088
WIRE 816 1104 784 1104
WIRE 1072 1104 1072 1072
WIRE 1072 1104 880 1104
WIRE 1152 1104 1152 1088
WIRE 1184 1104 1152 1104
WIRE 3136 1104 3136 1040
WIRE 3392 1104 3392 928
WIRE 1152 1120 1152 1104
WIRE 1184 1120 1152 1120
WIRE 2688 1120 2688 1088
WIRE 1104 1136 944 1136
WIRE 1184 1136 1168 1136
WIRE 2464 1136 2464 1088
WIRE 1152 1152 1152 1120
WIRE 1200 1152 1200 1136
WIRE 1200 1152 1152 1152
WIRE 1200 1168 1200 1152
WIRE 800 1216 736 1216
WIRE 944 1216 944 1136
WIRE 944 1216 864 1216
WIRE 1072 1216 1072 1104
WIRE 1088 1216 1072 1216
WIRE 1184 1216 1152 1216
WIRE 2208 1216 2128 1216
WIRE 2272 1216 2208 1216
WIRE 2384 1216 2352 1216
WIRE 2416 1216 2384 1216
WIRE 1184 1232 1168 1232
WIRE 1616 1232 1616 976
WIRE 1616 1232 1248 1232
WIRE 784 1248 784 1104
WIRE 784 1248 608 1248
WIRE 800 1248 784 1248
WIRE 1072 1248 864 1248
WIRE 1184 1248 1136 1248
WIRE 2208 1248 2208 1216
WIRE 2384 1248 2384 1216
WIRE 1168 1264 1168 1232
WIRE 1184 1264 1168 1264
WIRE 1088 1280 1072 1280
WIRE 1184 1280 1152 1280
WIRE 1168 1296 1168 1264
WIRE 1200 1296 1200 1280
WIRE 1200 1296 1168 1296
WIRE 1200 1312 1200 1296
WIRE 624 1344 560 1344
WIRE 1072 1344 1072 1280
WIRE 1072 1344 688 1344
WIRE 608 1376 608 1248
WIRE 608 1376 560 1376
WIRE 624 1376 608 1376
WIRE 2208 1376 2208 1328
WIRE 2384 1376 2384 1312
WIRE 2464 1376 2464 1232
FLAG 1296 288 0
FLAG 320 256 0
FLAG 48 336 0
FLAG -256 416 0
FLAG 1200 1168 0
FLAG 1200 1312 0
FLAG 1456 288 0
FLAG -176 -144 UMBILICAL
FLAG 128 -64 BATT_1
FLAG 368 16 BATT_2
FLAG 1088 560 0
FLAG 880 848 0
FLAG 1472 160 Umbilical_comparator
FLAG 1264 432 BATT_1_comparator
FLAG 1056 720 BATT_2_comparator
FLAG 768 1072 Umbilical_comparator
FLAG 736 1216 BATT_1_comparator
FLAG 560 1344 BATT_2_comparator
FLAG 688 304 LDO_POWER
FLAG 16 880 0
FLAG 240 720 0
FLAG -224 864 0
FLAG -192 608 LDO_POWER
FLAG 336 608 LOGIC_POWER
FLAG 560 1376 LOGIC_POWER
FLAG 1248 560 0
FLAG 1040 848 0
FLAG -992 -1504 Umbilical_gate_control_logic_output
FLAG -992 -1424 BATT_1_gate_control_logic_output
FLAG -992 -1344 BATT_2_gate_control_signal_logic_output
FLAG 448 -944 UMBILICAL
FLAG -384 -1504 Umbilical_gate_control_signal
FLAG -384 -1424 BATT_1_gate_control_signal
FLAG -384 -1344 BATT_2_gate_control_signal
FLAG 912 976 Umbilical_gate_control_logic_output
FLAG 1280 944 BATT_1_gate_control_logic_output
FLAG 1616 976 BATT_2_gate_control_signal_logic_output
FLAG 448 -784 BATT_1
FLAG 448 -624 BATT_2
FLAG 1632 -400 0
FLAG 1728 -560 RESET_GATE
FLAG 1232 -1344 LOGIC_POWER
FLAG -800 -944 0
FLAG 1232 -1056 SIGNAL_MOSFET
FLAG -960 -1120 SIGNAL_MOSFET
FLAG 624 -1008 Umbilical_gate_control_logic_output
FLAG 624 -848 BATT_1_gate_control_logic_output
FLAG 624 -688 BATT_2_gate_control_signal_logic_output
FLAG 944 -1056 0
FLAG -336 -1088 RESET_GATE
FLAG 0 -1136 0
FLAG 112 -1088 RESET_CLK
FLAG 1632 -720 0
FLAG 1728 -880 RESET_CLK
FLAG 2688 416 0
FLAG 2128 512 BATT_1_gate_control_signal
FLAG 2144 80 BATT_1
FLAG 2464 1376 0
FLAG 2688 1120 0
FLAG 2208 1376 0
FLAG 2384 1376 0
FLAG 2144 784 BATT_2
FLAG 2128 1216 BATT_2_gate_control_signal
FLAG 2464 -48 0
FLAG 2688 -304 0
FLAG 2208 -48 0
FLAG 2384 -48 0
FLAG 2144 -640 UMBILICAL
FLAG 2128 -208 Umbilical_gate_control_signal
FLAG 2464 672 0
FLAG 2384 672 0
FLAG 2208 672 0
FLAG 3136 1104 0
FLAG 3392 1104 0
FLAG 656 -1248 Deny_Signal
FLAG 3392 784 OUTPUT_RAIL
FLAG 448 -912 OUTPUT_RAIL
FLAG 448 -752 OUTPUT_RAIL
FLAG 448 -592 OUTPUT_RAIL
FLAG 1216 -400 0
FLAG 2800 960 BATT_2_GATE
FLAG 2800 256 BATT_1_GATE
FLAG 2800 -464 UMB_GATE
FLAG 560 -1296 0
FLAG 512 -1088 0
FLAG 432 -1088 0
FLAG 784 -944 0
FLAG 784 -784 0
FLAG 784 -624 0
FLAG 1024 -816 0
FLAG 288 -1072 0
SYMBOL voltage -256 320 R0
WINDOW 123 0 0 Left 0
WINDOW 39 0 0 Left 0
WINDOW 3 24 96 Left 1
SYMATTR Value PULSE(0 48 0 10m 4m 200m 5 1)
SYMATTR InstName UMBILICAL
SYMBOL voltage 48 240 R0
WINDOW 123 0 0 Left 0
WINDOW 39 0 0 Left 0
WINDOW 3 24 96 Left 1
SYMATTR Value PULSE(0 16.8 0 10m 10m 500m 5 1)
SYMATTR InstName BATT_1
SYMBOL voltage 320 160 R0
WINDOW 123 0 0 Left 0
WINDOW 39 0 0 Left 0
WINDOW 3 24 96 Left 1
SYMATTR Value PULSE(0 16.8 0 10m 100m 10 11 1)
SYMATTR InstName BATT_2
SYMBOL res 1280 32 R0
SYMATTR InstName R1
SYMATTR Value 10000
SYMBOL res 1280 176 R0
SYMATTR InstName R2
SYMATTR Value 1250
SYMBOL cap 1472 208 M0
WINDOW 3 -50 49 Left 2
WINDOW 0 -21 10 Left 2
SYMATTR Value 100n
SYMATTR InstName C2
SYMBOL Digital\\diffschmitt 624 1296 R0
WINDOW 3 201 104 Right 0
SYMATTR Value Trise=1u, Vhigh = 5, Vt = 0.1, Vh = 0.05
SYMATTR InstName A7
SYMBOL Digital\\diffschmitt 800 1168 R0
WINDOW 3 170 115 Right 0
SYMATTR Value Trise=1u, Vhigh = 5, Vt = 0.1, Vh = 0.05
SYMATTR InstName A8
SYMBOL Digital\\diffschmitt 816 1024 R0
WINDOW 3 248 102 Right 0
SYMATTR Value Trise=20u, Vhigh = 5, Vt = 0.05, Vh = 0.075, Td = 5u
SYMATTR InstName A9
SYMBOL res 1328 144 M90
WINDOW 0 0 56 VBottom 2
WINDOW 3 32 56 VTop 2
SYMATTR InstName R8
SYMATTR Value 1000
SYMBOL bv -256 176 R0
WINDOW 3 24 96 Left 1
SYMATTR Value V=white(2e4*time) / 13
SYMATTR InstName UMBILICAL_Noise
SYMBOL bv 48 112 R0
WINDOW 3 24 96 Left 1
SYMATTR Value V=white(2e4*time) / 13
SYMATTR InstName BATT_1_Noise
SYMBOL bv 320 32 R0
WINDOW 3 24 96 Left 1
SYMATTR Value V=white(2e4*time) / 13
SYMATTR InstName BATT_2_Noise
SYMBOL res 1072 304 R0
SYMATTR InstName R3
SYMATTR Value 10000
SYMBOL res 1072 448 R0
SYMATTR InstName R4
SYMATTR Value 4500
SYMBOL res 864 592 R0
SYMATTR InstName R6
SYMATTR Value 10000
SYMBOL res 864 736 R0
SYMATTR InstName R12
SYMATTR Value 4500
SYMBOL cap -128 784 R90
WINDOW 0 0 32 VBottom 2
WINDOW 3 32 32 VTop 2
SYMATTR InstName C7
SYMATTR Value 1n
SYMBOL cap 224 624 R0
SYMATTR InstName C8
SYMATTR Value 4.7µ
SYMATTR SpiceLine Rser=1.5m
SYMBOL ADM7170-5.0 16 704 R0
SYMATTR InstName U1
SYMBOL cap 1264 480 M0
WINDOW 3 -50 49 Left 2
WINDOW 0 -36 11 Left 2
SYMATTR Value 100n
SYMATTR InstName C11
SYMBOL res 1120 416 M90
WINDOW 0 0 56 VBottom 2
WINDOW 3 32 56 VTop 2
SYMATTR InstName R32
SYMATTR Value 1000
SYMBOL cap 1056 768 M0
WINDOW 3 -50 49 Left 2
WINDOW 0 -36 13 Left 2
SYMATTR Value 100n
SYMATTR InstName C12
SYMBOL res 912 704 M90
WINDOW 0 0 56 VBottom 2
WINDOW 3 32 56 VTop 2
SYMATTR InstName R33
SYMATTR Value 1000
SYMBOL schottky 752 192 R0
SYMATTR InstName D1
SYMBOL schottky 672 192 R0
SYMATTR InstName D2
SYMBOL schottky 592 192 R0
SYMATTR InstName D4
SYMBOL Digital\\diffschmitt 528 -992 R0
WINDOW 3 1 111 Right 1
SYMATTR Value Trise=1u, Vhigh = 5, Vt = 0.05, Vh = 0.075, Td = 10n
SYMATTR InstName A12
SYMBOL Digital\\diffschmitt 528 -832 R0
WINDOW 3 1 111 Right 1
SYMATTR Value Trise=1u, Vhigh = 5, Vt = 0.05, Vh = 0.075, Td = 10n
SYMATTR InstName A14
SYMBOL Digital\\diffschmitt 528 -672 R0
WINDOW 3 1 111 Right 1
SYMATTR Value Trise=1u, Vhigh = 5, Vt = 0.05, Vh = 0.075, Td = 10n
SYMATTR InstName A16
SYMBOL pmos -848 -1296 M270
SYMATTR InstName M7
SYMATTR Value Si1555DL_P
SYMBOL pmos -720 -1376 M270
SYMATTR InstName M1
SYMATTR Value Si1555DL_P
SYMBOL pmos -592 -1456 M270
SYMATTR InstName M6
SYMATTR Value Si1555DL_P
SYMBOL cap 1616 -480 R0
SYMATTR InstName C10
SYMATTR Value 9n
SYMBOL res 1552 -576 R90
WINDOW 0 0 56 VBottom 2
WINDOW 3 32 56 VTop 2
SYMATTR InstName R36
SYMATTR Value 5000
SYMBOL res 1488 -672 R90
WINDOW 0 0 56 VBottom 2
WINDOW 3 32 56 VTop 2
SYMATTR InstName R16
SYMATTR Value 1000
SYMBOL res 1136 -1216 R90
WINDOW 0 0 56 VBottom 2
WINDOW 3 32 56 VTop 2
SYMATTR InstName R38
SYMATTR Value 330
SYMBOL res -944 -1280 R0
SYMATTR InstName R34
SYMATTR Value 330
SYMBOL res -816 -1280 R0
SYMATTR InstName R35
SYMATTR Value 330
SYMBOL res -688 -1280 R0
SYMATTR InstName R37
SYMATTR Value 330
SYMBOL res -816 -1072 R0
SYMATTR InstName R48
SYMATTR Value 10000
SYMBOL pmos 1168 -1120 M180
SYMATTR InstName M11
SYMATTR Value Si1555DL_P
SYMBOL res 928 -1184 R0
SYMATTR InstName R5
SYMATTR Value 33000
SYMBOL Digital\\dflop 512 -1248 R0
WINDOW 3 -119 -20 Left 2
SYMATTR Value Vhigh = 5
SYMATTR InstName A11
SYMBOL diode 1584 -672 R90
WINDOW 0 0 32 VBottom 2
WINDOW 3 32 32 VTop 2
SYMATTR InstName D5
SYMBOL cap 1616 -800 R0
SYMATTR InstName C15
SYMATTR Value 17n
SYMBOL res 1552 -896 R90
WINDOW 0 0 56 VBottom 2
WINDOW 3 32 56 VTop 2
SYMATTR InstName R39
SYMATTR Value 5000
SYMBOL res 1488 -992 R90
WINDOW 0 0 56 VBottom 2
WINDOW 3 32 56 VTop 2
SYMATTR InstName R40
SYMATTR Value 1000
SYMBOL diode 1584 -992 R90
WINDOW 0 0 32 VBottom 2
WINDOW 3 32 32 VTop 2
SYMATTR InstName D6
SYMBOL pmos 2336 128 R270
WINDOW 3 56 72 Left 0
SYMATTR Value Si7469DP
SYMATTR InstName M14
SYMBOL pmos 2816 128 M270
WINDOW 3 56 72 Left 0
SYMATTR Value Si7469DP
SYMATTR InstName M15
SYMBOL res 2448 128 R0
SYMATTR InstName R42
SYMATTR Value 5000
SYMBOL cap 2560 160 R0
SYMATTR InstName C19
SYMATTR Value 10p
SYMBOL zener 2704 192 R180
WINDOW 0 24 64 Left 2
WINDOW 3 24 0 Left 1
SYMATTR InstName D7
SYMATTR Value EDZV13B
SYMBOL res 2448 288 R0
SYMATTR InstName R43
SYMATTR Value 650
SYMBOL nmos 2416 432 R0
SYMATTR InstName M16
SYMATTR Value BSC047N08NS3
SYMBOL res 2672 288 R0
SYMATTR InstName R44
SYMATTR Value 10e5
SYMBOL res 2368 496 R90
WINDOW 0 0 56 VBottom 2
WINDOW 3 32 56 VTop 2
SYMATTR InstName R45
SYMATTR Value 220
SYMBOL res 2192 528 R0
SYMATTR InstName R46
SYMATTR Value 10000
SYMBOL cap 2368 544 R0
SYMATTR InstName C20
SYMATTR Value 10p
SYMBOL pmos 2336 832 R270
WINDOW 3 56 72 Left 0
SYMATTR Value Si7469DP
SYMATTR InstName M10
SYMBOL pmos 2816 832 M270
WINDOW 3 56 72 Left 0
SYMATTR Value Si7469DP
SYMATTR InstName M12
SYMBOL res 2448 832 R0
SYMATTR InstName R19
SYMATTR Value 5000
SYMBOL cap 2560 864 R0
SYMATTR InstName C18
SYMATTR Value 10p
SYMBOL zener 2704 896 R180
WINDOW 0 24 64 Left 2
WINDOW 3 24 0 Left 1
SYMATTR InstName D3
SYMATTR Value EDZV13B
SYMBOL res 2448 992 R0
SYMATTR InstName R20
SYMATTR Value 650
SYMBOL nmos 2416 1136 R0
SYMATTR InstName M13
SYMATTR Value BSC047N08NS3
SYMBOL res 2672 992 R0
SYMATTR InstName R41
SYMATTR Value 10e5
SYMBOL res 2368 1200 R90
WINDOW 0 0 56 VBottom 2
WINDOW 3 32 56 VTop 2
SYMATTR InstName R47
SYMATTR Value 110
SYMBOL res 2192 1232 R0
SYMATTR InstName R49
SYMATTR Value 10000
SYMBOL cap 2368 1248 R0
SYMATTR InstName C21
SYMATTR Value 10p
SYMBOL pmos 2336 -592 R270
WINDOW 3 56 72 Left 0
SYMATTR Value Si7469DP
SYMATTR InstName M17
SYMBOL pmos 2816 -592 M270
WINDOW 3 56 72 Left 0
SYMATTR Value Si7469DP
SYMATTR InstName M18
SYMBOL res 2448 -592 R0
SYMATTR InstName R50
SYMATTR Value 10000
SYMBOL cap 2560 -560 R0
SYMATTR InstName C22
SYMATTR Value 10p
SYMBOL nmos 2416 -288 R0
SYMATTR InstName M19
SYMATTR Value BSC047N08NS3
SYMBOL res 2672 -432 R0
SYMATTR InstName R51
SYMATTR Value 10e5
SYMBOL res 2368 -224 R90
WINDOW 0 0 56 VBottom 2
WINDOW 3 32 56 VTop 2
SYMATTR InstName R52
SYMATTR Value 220
SYMBOL res 2192 -192 R0
SYMATTR InstName R53
SYMATTR Value 10000
SYMBOL cap 2368 -176 R0
SYMATTR InstName C23
SYMATTR Value 10p
SYMBOL zener 2704 -528 R180
WINDOW 0 24 64 Left 2
WINDOW 3 24 0 Left 1
SYMATTR InstName D9
SYMATTR Value EDZV22B
SYMBOL res 2448 -432 R0
SYMATTR InstName R54
SYMATTR Value 10000
SYMBOL res 3408 944 R180
WINDOW 0 36 76 Left 2
WINDOW 3 36 40 Left 2
SYMATTR InstName R55
SYMATTR Value 5
SYMBOL cap 3120 976 R0
SYMATTR InstName C1
SYMATTR Value 1µ
SYMBOL res 1200 -528 R0
SYMATTR InstName R7
SYMATTR Value 33000
SYMBOL res 3120 816 R0
SYMATTR InstName R11
SYMATTR Value 10
SYMBOL res 2304 768 R90
WINDOW 0 0 56 VBottom 2
WINDOW 3 32 56 VTop 2
SYMATTR InstName BATT2
SYMATTR Value 0.01
SYMBOL res 2320 64 R90
WINDOW 0 0 56 VBottom 2
WINDOW 3 32 56 VTop 2
SYMATTR InstName BATT1
SYMATTR Value 0.01
SYMBOL res 2304 -656 R90
WINDOW 0 0 56 VBottom 2
WINDOW 3 32 56 VTop 2
SYMATTR InstName UMB
SYMATTR Value 0.01
SYMBOL ind 832 -160 R90
WINDOW 0 5 56 VBottom 2
WINDOW 3 32 56 VTop 2
SYMATTR InstName L1
SYMATTR Value 20n
SYMBOL ind 848 -80 R90
WINDOW 0 5 56 VBottom 2
WINDOW 3 32 56 VTop 2
SYMATTR InstName L2
SYMATTR Value 20n
SYMBOL ind 1056 0 R90
WINDOW 0 5 56 VBottom 2
WINDOW 3 32 56 VTop 2
SYMATTR InstName L3
SYMATTR Value 20n
SYMBOL res 1184 -896 R90
WINDOW 0 0 56 VBottom 2
WINDOW 3 32 56 VTop 2
SYMATTR InstName R9
SYMATTR Value 0.001
SYMBOL res 1200 -1328 R0
SYMATTR InstName R10
SYMATTR Value 0.001
SYMBOL Digital\\schmtbuf 1120 1008 R0
WINDOW 0 3 33 Left 1
WINDOW 3 3 22 Left 0
SYMATTR InstName A15
SYMATTR Value Vhigh = 4.9, Vlow = 0.1, Vt = 2.5, Vh =1
SYMBOL Digital\\schmtbuf 1104 1072 R0
WINDOW 0 3 33 Left 1
WINDOW 3 3 22 Left 0
SYMATTR InstName A21
SYMATTR Value Vhigh = 4.9, Vlow = 0.1, Vt = 2.5, Vh =1
SYMBOL Digital\\schmtbuf 1088 1152 R0
WINDOW 0 33 52 Left 0
WINDOW 3 -211 88 Left 0
SYMATTR InstName A1
SYMATTR Value Vhigh = 4.9, Vlow = 0.1, Vt = 2.5, Vh =1
SYMBOL Digital\\schmtbuf 1072 1184 R0
WINDOW 0 32 53 Left 0
WINDOW 3 -193 45 Left 0
SYMATTR InstName A23
SYMATTR Value Vhigh = 4.9, Vlow = 0.1, Vt = 2.5, Vh =1
SYMBOL Digital\\schmtbuf 1088 1216 R0
WINDOW 0 27 50 Left 0
WINDOW 3 -211 42 Left 0
SYMATTR InstName A24
SYMATTR Value Vhigh = 4.9, Vlow = 0.1, Vt = 2.5, Vh =1
SYMBOL Digital\\schmtbuf 672 -1120 R0
WINDOW 0 33 52 Left 0
WINDOW 3 14 42 Left 0
SYMATTR InstName A27
SYMATTR Value Vhigh = 4.9, Vlow = 0.1, Vt = 2.5, Vh =1
SYMBOL Digital\\schmtbuf 672 -1072 R0
WINDOW 0 33 52 Left 0
WINDOW 3 14 42 Left 0
SYMATTR InstName A19
SYMATTR Value Vhigh = 4.9, Vlow = 0.1, Vt = 2.5, Vh =1
SYMBOL Digital\\schmtbuf 672 -1024 R0
WINDOW 0 33 52 Left 0
WINDOW 3 14 42 Left 0
SYMATTR InstName A25
SYMATTR Value Vhigh = 4.9, Vlow = 0.1, Vt = 2.5, Vh =1
SYMBOL Digital\\schmtbuf 672 -960 R0
WINDOW 0 33 52 Left 0
WINDOW 3 14 42 Left 0
SYMATTR InstName A26
SYMATTR Value Vhigh = 4.9, Vlow = 0.1, Vt = 2.5, Vh =1
SYMBOL Digital\\schmtbuf 672 -912 R0
WINDOW 0 33 52 Left 0
WINDOW 3 14 42 Left 0
SYMATTR InstName A29
SYMATTR Value Vhigh = 4.9, Vlow = 0.1, Vt = 2.5, Vh =1
SYMBOL Digital\\schmtbuf 672 -864 R0
WINDOW 0 33 52 Left 0
WINDOW 3 14 42 Left 0
SYMATTR InstName A30
SYMATTR Value Vhigh = 4.9, Vlow = 0.1, Vt = 2.5, Vh =1
SYMBOL Digital\\schmtbuf 672 -800 R0
WINDOW 0 33 52 Left 0
WINDOW 3 14 42 Left 0
SYMATTR InstName A31
SYMATTR Value Vhigh = 4.9, Vlow = 0.1, Vt = 2.5, Vh =1
SYMBOL Digital\\schmtbuf 672 -752 R0
WINDOW 0 33 52 Left 0
WINDOW 3 14 42 Left 0
SYMATTR InstName A33
SYMATTR Value Vhigh = 4.9, Vlow = 0.1, Vt = 2.5, Vh =1
SYMBOL Digital\\schmtbuf 672 -704 R0
WINDOW 0 33 52 Left 0
WINDOW 3 14 42 Left 0
SYMATTR InstName A34
SYMATTR Value Vhigh = 4.9, Vlow = 0.1, Vt = 2.5, Vh =1
SYMBOL Digital\\schmtbuf -160 -1296 R0
WINDOW 0 33 52 Left 0
WINDOW 3 14 42 Left 0
SYMATTR InstName A36
SYMATTR Value Vhigh = 4.9, Vlow = 0.1, Vt = 2.5, Vh =1
SYMBOL Digital\\schmtbuf -160 -1248 R0
WINDOW 0 33 52 Left 0
WINDOW 3 14 42 Left 0
SYMATTR InstName A37
SYMATTR Value Vhigh = 4.9, Vlow = 0.1, Vt = 2.5, Vh =1
SYMBOL Digital\\schmtbuf -160 -1200 R0
WINDOW 0 33 52 Left 0
WINDOW 3 14 42 Left 0
SYMATTR InstName A38
SYMATTR Value Vhigh = 4.9, Vlow = 0.1, Vt = 2.5, Vh =1
SYMBOL Digital\\schmtbuf -160 -1152 R0
WINDOW 0 33 52 Left 0
WINDOW 3 14 42 Left 0
SYMATTR InstName A39
SYMATTR Value Vhigh = 4.9, Vlow = 0.1, Vt = 2.5, Vh =1
SYMBOL Digital\\and 1216 1040 R0
WINDOW 3 10 99 Left 0
SYMATTR Value Vhigh = 4.9, Vlow = 0.1,Td = 5n, Trise = 2.5n, Tfall = 2.5n
SYMATTR InstName A40
SYMBOL Digital\\schmtinv -288 -1296 R0
WINDOW 0 8 32 Left 1
WINDOW 3 13 299 Left 0
SYMATTR InstName A22
SYMATTR Value td = 5n, Vhigh  = 4.9, Vlow = 0.1, Vt = 2.81, Vh = 0.555, Trise = 2.5n
SYMBOL Digital\\schmtinv -288 -1248 R0
WINDOW 0 8 32 Left 1
WINDOW 3 13 299 Left 0
SYMATTR InstName A3
SYMATTR Value td = 5n, Vhigh  = 4.9, Vlow = 0.1, Vt = 2.81, Vh = 0.555, Trise = 2.5n
SYMBOL Digital\\schmtinv -288 -1200 R0
WINDOW 0 8 32 Left 1
WINDOW 3 13 299 Left 0
SYMATTR InstName A6
SYMATTR Value td = 5n, Vhigh  = 4.9, Vlow = 0.1, Vt = 2.81, Vh = 0.555, Trise = 2.5n
SYMBOL Digital\\schmtinv -288 -1152 R0
WINDOW 0 8 32 Left 1
WINDOW 3 13 299 Left 0
SYMATTR InstName A17
SYMATTR Value td = 5n, Vhigh  = 4.9, Vlow = 0.1, Vt = 2.81, Vh = 0.555, Trise = 2.5n
SYMBOL Digital\\and 1216 1184 R0
WINDOW 3 10 99 Left 0
SYMATTR Value Vhigh = 4.9, Vlow = 0.1,Td = 5n, Trise = 2.5n, Tfall = 2.5n
SYMATTR InstName A2
SYMBOL Digital\\and 800 -1072 R0
WINDOW 3 10 99 Left 0
SYMATTR Value Vhigh = 4.9, Vlow = 0.1,Td = 5n, Trise = 2.5n, Tfall = 2.5n
SYMATTR InstName A41
SYMBOL Digital\\and 16 -1248 R0
WINDOW 3 -35 13 Left 0
SYMATTR Value Vhigh = 4.9, Vlow = 0.1,Td = 5n, Trise = 2.5n, Tfall = 2.5n
SYMATTR InstName A4
SYMBOL Digital\\and 800 -912 R0
WINDOW 3 10 99 Left 0
SYMATTR Value Vhigh = 4.9, Vlow = 0.1,Td = 5n, Trise = 2.5n, Tfall = 2.5n
SYMATTR InstName A28
SYMBOL Digital\\and 800 -752 R0
WINDOW 3 10 99 Left 0
SYMATTR Value Vhigh = 4.9, Vlow = 0.1,Td = 5n, Trise = 2.5n, Tfall = 2.5n
SYMATTR InstName A32
SYMBOL Digital\\or 1040 -928 R0
WINDOW 0 -2 23 Left 2
WINDOW 3 -68 4 Left 0
SYMATTR InstName A10
SYMATTR Value Vhigh = 5, Vlow = 0.1V, Td = 3.5n, Trise = 2.5n, Tfall = 2.5n
SYMBOL Digital\\schmtbuf 896 -848 R0
WINDOW 0 33 52 Left 0
WINDOW 3 14 42 Left 0
SYMATTR InstName A35
SYMATTR Value Vhigh = 4.9, Vlow = 0.1, Vt = 2.5, Vh =1
SYMBOL Digital\\schmtbuf 896 -1008 R0
WINDOW 0 33 52 Left 0
WINDOW 3 14 42 Left 0
SYMATTR InstName A42
SYMATTR Value Vhigh = 4.9, Vlow = 0.1, Vt = 2.5, Vh =1
SYMBOL Digital\\schmtbuf 896 -928 R0
WINDOW 0 33 52 Left 0
WINDOW 3 -40 39 Left 0
SYMATTR InstName A18
SYMATTR Value Vhigh = 4.9, Vlow = 0.1, Vt = 2.5, Vh =1
SYMBOL Digital\\schmtbuf 160 -1152 R0
WINDOW 0 33 52 Left 0
WINDOW 3 14 42 Left 0
SYMATTR InstName A43
SYMATTR Value Vhigh = 4.9, Vlow = 0.1, Vt = 2.5, Vh =1
SYMBOL Digital\\schmtbuf 160 -1216 R0
WINDOW 0 33 52 Left 0
WINDOW 3 14 42 Left 0
SYMATTR InstName A44
SYMATTR Value Vhigh = 4.9, Vlow = 0.1, Vt = 2.5, Vh =1
SYMBOL Digital\\or 304 -1184 R0
WINDOW 0 -2 23 Left 2
WINDOW 3 -68 4 Left 0
SYMATTR InstName A20
SYMATTR Value Vhigh = 5, Vlow = 0.1V, Td = 3.5n, Trise = 2.5n, Tfall = 2.5n
TEXT -256 -200 Left 2 !.tran 800m
TEXT 640 1480 Left 2 ;Need to switch all the output signals to not invert the signal
TEXT 1432 104 Left 2 ;common switch debouncing values
TEXT 8 -272 Left 2 ;ORing diodes or or gate, this needs to supply some current to turn on the transmission gate so idk?
TEXT -680 -1728 Left 2 ;Maybe use transmission gates here or something (single rail transmission gates)
TEXT -480 -1600 Left 2 ;If the propogation delay is high, then the and gate wont read a fast switch over event, maybe add some sort of delay so down time is more easier to detect.
TEXT 1104 1384 Left 2 ;Any decoupling capacitors here?
TEXT -32 1016 Left 2 ;Voltage divider so when the umbilical falls below 30V this switches off
