Version 4.1
SHEET 1 2480 756
WIRE 800 -64 -96 -64
WIRE 1504 -64 800 -64
WIRE 720 -32 32 -32
WIRE 1392 -32 720 -32
WIRE 1584 -16 1440 -16
WIRE 656 0 160 0
WIRE 1344 0 656 0
WIRE 800 80 800 -64
WIRE 1040 96 944 96
WIRE 1392 96 1392 -32
WIRE 1504 96 1392 96
WIRE 1664 96 1664 -64
WIRE 1808 96 1664 96
WIRE 944 144 944 96
WIRE 1584 144 1472 144
WIRE -96 160 -96 -64
WIRE 32 160 32 -32
WIRE 160 160 160 0
WIRE 912 160 800 160
WIRE 1440 176 1440 -16
WIRE 1440 176 976 176
WIRE 912 192 864 192
WIRE 1344 240 1344 0
WIRE 1504 240 1344 240
WIRE 1664 240 1664 96
WIRE 864 256 864 192
WIRE 1040 256 1040 96
WIRE 1040 256 864 256
WIRE 720 304 720 -32
WIRE 1040 336 1040 256
WIRE 1040 336 944 336
WIRE 944 368 944 336
WIRE 1808 368 1808 96
WIRE 912 384 720 384
WIRE 1472 400 1472 144
WIRE 1472 400 976 400
WIRE 912 416 880 416
WIRE 880 464 880 416
WIRE 1040 464 1040 336
WIRE 1040 464 880 464
WIRE 656 496 656 0
WIRE 1040 544 1040 464
WIRE 1040 544 944 544
WIRE 944 560 944 544
WIRE 912 576 656 576
WIRE 1584 592 1584 288
WIRE 1584 592 976 592
WIRE 912 608 880 608
WIRE 880 656 880 608
WIRE 1040 656 1040 544
WIRE 1040 656 880 656
FLAG -96 240 0
FLAG 32 240 0
FLAG 160 240 0
FLAG 800 240 0
FLAG 1808 448 0
FLAG 944 208 0
FLAG 720 464 0
FLAG 656 656 0
FLAG 944 432 0
FLAG 944 624 0
FLAG 1040 736 0
SYMBOL voltage -96 144 R0
WINDOW 123 0 0 Left 0
WINDOW 39 0 0 Left 0
SYMATTR InstName V1
SYMATTR Value 20
SYMBOL voltage 32 144 R0
WINDOW 123 0 0 Left 0
WINDOW 39 0 0 Left 0
SYMATTR InstName V2
SYMATTR Value 0
SYMBOL voltage 160 144 R0
WINDOW 123 0 0 Left 0
WINDOW 39 0 0 Left 0
SYMATTR InstName V3
SYMATTR Value 0
SYMBOL res 784 144 R0
SYMATTR InstName R1
SYMATTR Value 100
SYMBOL res 784 64 R0
SYMATTR InstName R2
SYMATTR Value 200
SYMBOL pmos 1504 -16 R270
SYMATTR InstName M1
SYMBOL pmos 1504 144 R270
SYMATTR InstName M2
SYMBOL pmos 1504 288 R270
SYMATTR InstName M3
SYMBOL diode 1600 -48 R270
WINDOW 0 32 32 VTop 2
WINDOW 3 0 32 VBottom 2
SYMATTR InstName D7
SYMBOL diode 1600 112 R270
WINDOW 0 32 32 VTop 2
WINDOW 3 0 32 VBottom 2
SYMATTR InstName D8
SYMBOL diode 1600 256 R270
WINDOW 0 32 32 VTop 2
WINDOW 3 0 32 VBottom 2
SYMATTR InstName D9
SYMBOL res 1792 352 R0
SYMATTR InstName R8
SYMATTR Value 100000
SYMBOL OpAmps\\UniversalOpAmp2 944 176 R0
SYMATTR InstName U4
SYMBOL OpAmps\\UniversalOpAmp2 944 400 R0
SYMATTR InstName U1
SYMBOL OpAmps\\UniversalOpAmp2 944 592 R0
SYMATTR InstName U2
SYMBOL res 704 288 R0
SYMATTR InstName R3
SYMATTR Value 200
SYMBOL res 704 368 R0
SYMATTR InstName R4
SYMATTR Value 100
SYMBOL res 640 560 R0
SYMATTR InstName R5
SYMATTR Value 100
SYMBOL res 640 480 R0
SYMATTR InstName R6
SYMATTR Value 200
SYMBOL voltage 1040 640 R0
WINDOW 123 0 0 Left 0
WINDOW 39 0 0 Left 0
SYMATTR InstName V4
SYMATTR Value 5
TEXT 384 632 Left 2 !.tran 5 startup
