* E:\Outpost Vault\Outpost Door\Outpost Quick Access\Projects\1) Major Projects\Work for SOAR\PMB REV 2\Code\SOAR_PMB_Rev_2\SPICE SIMS\Switching Logic.asc
* Generated by LTspice 24.1.4 for Windows.
V§Umbilical N006 0 PULSE(0 20 0 400m 20m 100m 5 1)
V§BATT_1 N005 0 PULSE(0 20 0 100m 4u 1 5 1)
V§BATT_2 N001 0 PULSE(0 20 1 0.1 0.1 10 11 1)
R1 Umbilical N008 10000
R2 N008 0 20000
R3 BATT_1 N014 100
R4 N014 0 200
R5 BATT_2 N018 100
R6 N018 0 200
V4 N020 0 5
A1 N009 0 0 0 0 N010 0 0 BUF
A2 N010 0 0 0 N013 0 N012 0 OR Vhigh = 5
A4 N010 0 0 0 N017 0 N015 0 OR
A5 N013 0 0 0 0 N017 0 0 BUF
A3 N015 0 0 0 N019 0 N016 0 OR Vhigh = 5
R9 N011 N020 0.1
R10 N002 N009 10000
C1 N002 0 500nf
C2 N007 0 500n
C3 N014 0 500n
C4 N018 0 500n
A7 N018 N011 0 0 0 N019 0 0 SCHMITT Trise=1u, Vhigh = 5, Vt = 0.1, Vh = 0.05
A8 N014 N011 0 0 0 N013 0 0 SCHMITT Trise=1u, Vhigh = 5, Vt = 0.1, Vh = 0.05
A9 N008 N011 0 0 0 N009 0 0 SCHMITT Trise=1u, Vhigh = 5, Vt = 0.1, Vh = 0.05
R8 N008 N007 10000
R7 N003 N012 2000
C5 N003 0 500nf
R11 N004 N016 10000
C6 N004 0 500nf
B§Umbilical_Noise Umbilical N006 V=white(2e4*time) / 13
BATT_1_Noise BATT_1 N005 V=white(2e4*time) / 13
BATT_2_Noise BATT_2 N001 V=white(2e4*time) / 13
.tran 3
.backanno
.end
