* E:\Outpost Vault\Outpost Door\Outpost Quick Access\Projects\1) Major Projects\Work for SOAR\PMB REV 2\Code\SOAR_PMB_Rev_2\SPICE SIMS\Switching Logic.asc
* Generated by LTspice 24.1.4 for Windows.
V1 N001 0 0
V2 N002 0 10
V3 N003 0 20
X§U1 N004 N005 N004 0 N006 level2 Avol=1Meg GBW=10Meg Slew=10Meg Ilimit=25m Rail=0 Vos=0 En=0 Enk=0 In=0 Ink=0 Rin=500Meg
X§U2 N004 N011 N004 0 N012 level2 Avol=1Meg GBW=10Meg Slew=10Meg Ilimit=25m Rail=0 Vos=0 En=0 Enk=0 In=0 Ink=0 Rin=500Meg
X§U3 N004 N014 N004 0 N015 level2 Avol=1Meg GBW=10Meg Slew=10Meg Ilimit=25m Rail=0 Vos=0 En=0 Enk=0 In=0 Ink=0 Rin=500Meg
R1 N001 N005 100
R2 N005 0 200
R3 N002 N011 100
R4 N011 0 200
R5 N003 N014 100
R6 N014 0 200
V4 N004 0 5
A1 N006 0 0 0 0 N007 0 0 BUF
A2 N007 0 0 0 0 0 N008 0 OR
A3 N009 0 0 0 N015 0 N010 0 OR
A4 N007 0 0 0 N013 0 N009 0 OR
A5 N012 0 0 0 0 N013 0 0 BUF
A6 N016 N018 N018 N018 0 N018 N017 N018 OR
V5 N016 0 10
V6 N019 0 1
R7 N019 N018 100
.tran 3
.lib UniversalOpAmp2.lib
.backanno
.end
