Version 4.1
SHEET 1 1608 916
WIRE 928 -144 -32 -144
WIRE 960 -144 928 -144
WIRE 768 -64 176 -64
WIRE 960 -64 768 -64
WIRE 576 16 400 16
WIRE 960 16 576 16
WIRE 928 64 928 -144
WIRE 1056 128 1008 128
WIRE 1024 144 928 144
WIRE 1152 160 1152 -16
WIRE 1152 160 1088 160
WIRE 1184 160 1152 160
WIRE 1296 160 1248 160
WIRE 1360 160 1296 160
WIRE -32 176 -32 -144
WIRE 176 176 176 -64
WIRE 400 176 400 16
WIRE 1008 176 1008 128
WIRE 1024 176 1008 176
WIRE 1424 176 1424 -16
WIRE 768 208 768 -64
WIRE 1296 240 1296 160
WIRE 1360 240 1296 240
WIRE 1536 256 1424 256
WIRE 880 272 832 272
WIRE 1008 272 1008 176
WIRE 1008 272 880 272
WIRE 1600 272 1600 -16
WIRE 848 288 768 288
WIRE 1264 304 912 304
WIRE 1360 304 1328 304
WIRE 832 320 832 272
WIRE 848 320 832 320
WIRE 576 336 576 16
WIRE 720 400 672 400
WIRE 832 400 832 320
WIRE 832 400 720 400
WIRE 688 416 576 416
WIRE 1536 432 1536 320
WIRE 1536 432 752 432
WIRE 672 448 672 400
WIRE 688 448 672 448
WIRE 672 544 672 448
WIRE 112 720 -96 720
WIRE 304 736 176 736
WIRE 112 784 80 784
WIRE -96 816 -96 720
WIRE 128 816 128 784
WIRE 176 816 128 816
WIRE 288 816 256 816
WIRE 80 832 80 784
FLAG 928 224 0
FLAG 768 368 0
FLAG 576 496 0
FLAG 672 624 0
FLAG 400 256 0
FLAG 176 256 0
FLAG -32 256 0
FLAG 1056 192 0
FLAG 880 336 0
FLAG 720 464 0
FLAG 80 832 0
FLAG -96 896 0
FLAG 288 896 0
SYMBOL voltage -32 160 R0
WINDOW 123 0 0 Left 0
WINDOW 39 0 0 Left 0
SYMATTR InstName V1
SYMATTR Value 0
SYMBOL voltage 176 160 R0
WINDOW 123 0 0 Left 0
WINDOW 39 0 0 Left 0
SYMATTR InstName V2
SYMATTR Value 10
SYMBOL voltage 400 160 R0
WINDOW 123 0 0 Left 0
WINDOW 39 0 0 Left 0
SYMATTR InstName V3
SYMATTR Value 20
SYMBOL OpAmps\\UniversalOpAmp2 1056 160 R0
SYMATTR InstName U1
SYMBOL OpAmps\\UniversalOpAmp2 880 304 R0
SYMATTR InstName U2
SYMBOL OpAmps\\UniversalOpAmp2 720 432 R0
SYMATTR InstName U3
SYMBOL res 912 48 R0
SYMATTR InstName R1
SYMATTR Value 100
SYMBOL res 912 128 R0
SYMATTR InstName R2
SYMATTR Value 200
SYMBOL res 752 192 R0
SYMATTR InstName R3
SYMATTR Value 100
SYMBOL res 752 272 R0
SYMATTR InstName R4
SYMATTR Value 200
SYMBOL res 560 320 R0
SYMATTR InstName R5
SYMATTR Value 100
SYMBOL res 560 400 R0
SYMATTR InstName R6
SYMATTR Value 200
SYMBOL voltage 672 528 R0
WINDOW 123 0 0 Left 0
WINDOW 39 0 0 Left 0
SYMATTR InstName V4
SYMATTR Value 5
SYMBOL Digital\\inv 1184 96 R0
SYMATTR InstName A1
SYMBOL Digital\\or 1392 128 R0
SYMATTR InstName A2
SYMBOL Digital\\or 1568 224 R0
SYMATTR InstName A3
SYMBOL Digital\\or 1392 208 R0
SYMATTR InstName A4
SYMBOL Digital\\inv 1264 240 R0
SYMATTR InstName A5
SYMBOL Digital\\or 144 688 R0
SYMATTR InstName A6
SYMBOL voltage -96 800 R0
WINDOW 123 0 0 Left 0
WINDOW 39 0 0 Left 0
SYMATTR InstName V5
SYMATTR Value 10
SYMBOL voltage 288 800 R0
WINDOW 123 0 0 Left 0
WINDOW 39 0 0 Left 0
SYMATTR InstName V6
SYMATTR Value 1
SYMBOL res 272 800 R90
WINDOW 0 0 56 VBottom 2
WINDOW 3 32 56 VTop 2
SYMATTR InstName R7
SYMATTR Value 100
TEXT -32 408 Left 2 !.tran 3
