* E:\Outpost Vault\Outpost Door\Outpost Quick Access\Projects\1) Major Projects\Work for SOAR\PMB REV 2\Code\SOAR_PMB_Rev_2\SPICE SIMS\Switching Logic.asc
* Generated by LTspice 24.1.4 for Windows.
V1 N001 0 PULSE(0 30 0 400m 1 5 5 1)
V2 N002 0 PULSE(0 20 1 100m 4u 3 5 1)
V3 N003 0 20
X§U1 N005 N006 N005 0 N009 level2 Avol=1Meg GBW=10Meg Slew=10Meg Ilimit=25m Rail=0 Vos=0 En=0 Enk=0 In=0 Ink=0 Rin=500Meg
X§U2 N005 N013 N005 0 N012 level2 Avol=1Meg GBW=10Meg Slew=10Meg Ilimit=25m Rail=0 Vos=0 En=0 Enk=0 In=0 Ink=0 Rin=500Meg
X§U3 N005 N017 N005 0 N018 level2 Avol=1Meg GBW=10Meg Slew=10Meg Ilimit=25m Rail=0 Vos=0 En=0 Enk=0 In=0 Ink=0 Rin=500Meg
R1 N001 N006 100
R2 N006 0 200
R3 N002 N013 100
R4 N013 0 200
R5 N003 N017 100
R6 N017 0 200
V4 N022 0 5
A1 N009 0 0 0 0 N010 0 0 BUF
A2 N010 0 0 0 N012 0 N011 0 OR
A4 N010 0 0 0 N016 0 N014 0 OR
A5 N012 0 0 0 0 N016 0 0 BUF
A6 0 0 0 0 0 N026 N023 0 OR
V6 N027 0 4
R7 N027 N026 100
A3 N014 0 0 0 N018 0 N015 0 OR
A7 N024 N028 N028 N028 N028 N025 N028 N028 BUF
V5 N024 0 4
V7 N028 0 4
M1 N007 P001 N008 N008 PMOS
V8 P001 0 4
V9 N007 0 4
R8 0 N008 50
R9 N005 N022 0.1
T1 NC_16 NC_17 NC_18 NC_19 Td=50n Z0=50
T2 N019 0 N020 N021 Td=50n Z0=50
V10 N019 0 PULSE(0 10 0 10m 10m 4 5 1)
R10 N004 N009 2000
C1 N004 0 500nf
C2 N006 0 100n
.model NMOS NMOS
.model PMOS PMOS
.lib C:\Users\reinz\AppData\Local\LTspice\lib\cmp\standard.mos
.tran 3
.lib UniversalOpAmp2.lib
.backanno
.end
