Version 4.1
SHEET 1 2708 1760
WIRE 928 -144 -32 -144
WIRE 960 -144 928 -144
WIRE 768 -64 176 -64
WIRE 960 -64 768 -64
WIRE 576 16 400 16
WIRE 960 16 576 16
WIRE 1152 112 1056 112
WIRE 1152 144 1152 112
WIRE -32 176 -32 -144
WIRE 176 176 176 -64
WIRE 400 176 400 16
WIRE 928 192 928 -144
WIRE 1056 192 1056 176
WIRE 1056 256 1008 256
WIRE 928 272 832 272
WIRE 1024 272 928 272
WIRE 2368 272 2272 272
WIRE 2608 272 2464 272
WIRE 1152 288 1152 224
WIRE 1152 288 1088 288
WIRE 1184 288 1152 288
WIRE 1296 288 1248 288
WIRE 1360 288 1296 288
WIRE 1008 304 1008 256
WIRE 1024 304 1008 304
WIRE 1424 304 1424 112
WIRE 2272 320 2272 272
WIRE 768 336 768 -64
WIRE 2688 336 2688 272
WIRE 1360 352 1184 352
WIRE 1376 368 1376 352
WIRE 880 400 832 400
WIRE 1008 400 1008 304
WIRE 1008 400 880 400
WIRE 848 416 768 416
WIRE 1296 416 1296 288
WIRE 1360 416 1296 416
WIRE 1184 432 1184 352
WIRE 1184 432 912 432
WIRE 1232 432 1184 432
WIRE 1488 432 1424 432
WIRE 832 448 832 400
WIRE 848 448 832 448
WIRE 1600 448 1600 112
WIRE 1600 448 1552 448
WIRE 576 464 576 16
WIRE 1232 480 1232 432
WIRE 1264 480 1232 480
WIRE 1360 480 1328 480
WIRE 1376 512 1376 480
WIRE 720 528 672 528
WIRE 832 528 832 448
WIRE 832 528 720 528
WIRE 1504 528 1504 496
WIRE 1520 528 1504 528
WIRE 688 544 576 544
WIRE 1488 560 1488 496
WIRE 1488 560 752 560
WIRE 672 576 672 528
WIRE 688 576 672 576
WIRE 96 720 -112 720
WIRE 96 736 96 720
WIRE 384 736 192 736
WIRE -112 752 -112 720
WIRE 192 784 192 768
WIRE 672 800 672 576
WIRE 672 896 672 880
WIRE 32 1280 -176 1280
WIRE 224 1296 96 1296
WIRE 400 1296 320 1296
WIRE 592 1296 464 1296
WIRE 32 1344 0 1344
WIRE -176 1376 -176 1280
WIRE 96 1376 96 1328
WIRE 208 1376 176 1376
WIRE 400 1376 400 1312
WIRE 0 1392 0 1344
FLAG 928 352 0
FLAG 768 496 0
FLAG 576 624 0
FLAG 672 976 0
FLAG 400 256 0
FLAG 176 256 0
FLAG -32 256 0
FLAG 1056 320 0
FLAG 880 464 0
FLAG 720 592 0
FLAG 0 1392 0
FLAG 208 1456 0
FLAG -176 1376 0
FLAG 320 1376 0
FLAG 400 1456 0
FLAG 2688 336 0
FLAG 2448 400 0
FLAG 2272 400 0
FLAG 1376 368 0
FLAG 1376 512 0
FLAG 1520 528 0
FLAG -112 832 0
FLAG 96 768 0
FLAG 1056 192 0
FLAG 832 336 0
SYMBOL voltage -32 160 R0
WINDOW 123 0 0 Left 0
WINDOW 39 0 0 Left 0
SYMATTR InstName V1
SYMATTR Value PULSE(0 30 0 400m 1 5 5 1)
SYMBOL voltage 176 160 R0
WINDOW 123 0 0 Left 0
WINDOW 39 0 0 Left 0
SYMATTR InstName V2
SYMATTR Value PULSE(0 20 1 100m 4u 3 5 1)
SYMBOL voltage 400 160 R0
WINDOW 123 0 0 Left 0
WINDOW 39 0 0 Left 0
SYMATTR InstName V3
SYMATTR Value 20
SYMBOL OpAmps\\UniversalOpAmp2 1056 288 R0
SYMATTR InstName U1
SYMBOL OpAmps\\UniversalOpAmp2 880 432 R0
SYMATTR InstName U2
SYMBOL OpAmps\\UniversalOpAmp2 720 560 R0
SYMATTR InstName U3
SYMBOL res 912 176 R0
SYMATTR InstName R1
SYMATTR Value 100
SYMBOL res 912 256 R0
SYMATTR InstName R2
SYMATTR Value 200
SYMBOL res 752 320 R0
SYMATTR InstName R3
SYMATTR Value 100
SYMBOL res 752 400 R0
SYMATTR InstName R4
SYMATTR Value 200
SYMBOL res 560 448 R0
SYMATTR InstName R5
SYMATTR Value 100
SYMBOL res 560 528 R0
SYMATTR InstName R6
SYMATTR Value 200
SYMBOL voltage 672 880 R0
WINDOW 123 0 0 Left 0
WINDOW 39 0 0 Left 0
SYMATTR InstName V4
SYMATTR Value 5
SYMBOL Digital\\inv 1184 224 R0
SYMATTR InstName A1
SYMBOL Digital\\or 1392 256 R0
SYMATTR InstName A2
SYMBOL Digital\\or 1392 384 R0
SYMATTR InstName A4
SYMBOL Digital\\inv 1264 416 R0
SYMATTR InstName A5
SYMBOL Digital\\or 64 1248 R0
SYMATTR InstName A6
SYMBOL voltage 208 1360 R0
WINDOW 123 0 0 Left 0
WINDOW 39 0 0 Left 0
SYMATTR InstName V6
SYMATTR Value 4
SYMBOL res 192 1360 R90
WINDOW 0 0 56 VBottom 2
WINDOW 3 32 56 VTop 2
SYMATTR InstName R7
SYMATTR Value 100
SYMBOL Digital\\or 1520 400 R0
SYMATTR InstName A3
SYMBOL Digital\\inv 400 1232 R0
SYMATTR InstName A7
SYMBOL voltage 320 1280 R0
WINDOW 123 0 0 Left 0
WINDOW 39 0 0 Left 0
SYMATTR InstName V5
SYMATTR Value 4
SYMBOL voltage 400 1360 R0
WINDOW 123 0 0 Left 0
WINDOW 39 0 0 Left 0
SYMATTR InstName V7
SYMATTR Value 4
SYMBOL pmos 2368 320 R270
SYMATTR InstName M1
SYMBOL voltage 2448 304 R0
WINDOW 123 0 0 Left 0
WINDOW 39 0 0 Left 0
SYMATTR InstName V8
SYMATTR Value 4
SYMBOL voltage 2272 304 R0
WINDOW 123 0 0 Left 0
WINDOW 39 0 0 Left 0
SYMATTR InstName V9
SYMATTR Value 4
SYMBOL res 2704 256 R90
WINDOW 0 0 56 VBottom 2
WINDOW 3 32 56 VTop 2
SYMATTR InstName R8
SYMATTR Value 50
SYMBOL res 656 784 R0
SYMATTR InstName R9
SYMATTR Value 0.1
SYMBOL tline 1664 592 R0
SYMATTR InstName T1
SYMBOL tline 144 752 R0
SYMATTR InstName T2
SYMBOL voltage -112 736 R0
WINDOW 123 0 0 Left 0
WINDOW 39 0 0 Left 0
SYMATTR InstName V10
SYMATTR Value PULSE(0 10 0 10m 10m 4 5 1)
SYMBOL res 1136 128 R0
SYMATTR InstName R10
SYMATTR Value 2000
SYMBOL cap 1040 112 R0
SYMATTR InstName C1
SYMATTR Value 500nf
SYMBOL cap 816 272 R0
SYMATTR InstName C2
SYMATTR Value 100n
TEXT -32 408 Left 2 !.tran 3
