Version 4.1
SHEET 1 1608 964
WIRE 928 -144 -32 -144
WIRE 960 -144 928 -144
WIRE 768 -64 176 -64
WIRE 960 -64 768 -64
WIRE 576 16 400 16
WIRE 960 16 576 16
WIRE 928 64 928 -144
WIRE 1056 128 1008 128
WIRE 1024 144 928 144
WIRE 1152 160 1152 -16
WIRE 1152 160 1088 160
WIRE 1184 160 1152 160
WIRE 1296 160 1248 160
WIRE 1360 160 1296 160
WIRE -32 176 -32 -144
WIRE 176 176 176 -64
WIRE 400 176 400 16
WIRE 1008 176 1008 128
WIRE 1024 176 1008 176
WIRE 1424 176 1424 -16
WIRE 768 208 768 -64
WIRE 1360 224 1184 224
WIRE 880 272 832 272
WIRE 1008 272 1008 176
WIRE 1008 272 880 272
WIRE 848 288 768 288
WIRE 1296 288 1296 160
WIRE 1360 288 1296 288
WIRE 1184 304 1184 224
WIRE 1184 304 912 304
WIRE 1232 304 1184 304
WIRE 1488 304 1424 304
WIRE 832 320 832 272
WIRE 848 320 832 320
WIRE 1600 320 1600 -16
WIRE 1600 320 1552 320
WIRE 576 336 576 16
WIRE 1232 352 1232 304
WIRE 1264 352 1232 352
WIRE 1360 352 1328 352
WIRE 720 400 672 400
WIRE 832 400 832 320
WIRE 832 400 720 400
WIRE 688 416 576 416
WIRE 1488 432 1488 368
WIRE 1488 432 752 432
WIRE 672 448 672 400
WIRE 688 448 672 448
WIRE 672 544 672 448
WIRE 112 720 -96 720
WIRE 304 736 176 736
WIRE 480 736 400 736
WIRE 672 736 544 736
WIRE 112 784 80 784
WIRE -96 816 -96 720
WIRE 176 816 176 768
WIRE 288 816 256 816
WIRE 480 816 480 752
WIRE 1232 816 1136 816
WIRE 1472 816 1328 816
WIRE 80 832 80 784
WIRE 1136 864 1136 816
WIRE 1552 880 1552 816
FLAG 928 224 0
FLAG 768 368 0
FLAG 576 496 0
FLAG 672 624 0
FLAG 400 256 0
FLAG 176 256 0
FLAG -32 256 0
FLAG 1056 192 0
FLAG 880 336 0
FLAG 720 464 0
FLAG 80 832 0
FLAG 288 896 0
FLAG -96 816 0
FLAG 400 816 0
FLAG 480 896 0
FLAG 1552 880 0
FLAG 1312 944 0
FLAG 1136 944 0
SYMBOL voltage -32 160 R0
WINDOW 123 0 0 Left 0
WINDOW 39 0 0 Left 0
SYMATTR InstName V1
SYMATTR Value 0
SYMBOL voltage 176 160 R0
WINDOW 123 0 0 Left 0
WINDOW 39 0 0 Left 0
SYMATTR InstName V2
SYMATTR Value PULSE(0 20 1 100m 4u 3 5 1)
SYMBOL voltage 400 160 R0
WINDOW 123 0 0 Left 0
WINDOW 39 0 0 Left 0
SYMATTR InstName V3
SYMATTR Value 20
SYMBOL OpAmps\\UniversalOpAmp2 1056 160 R0
SYMATTR InstName U1
SYMBOL OpAmps\\UniversalOpAmp2 880 304 R0
SYMATTR InstName U2
SYMBOL OpAmps\\UniversalOpAmp2 720 432 R0
SYMATTR InstName U3
SYMBOL res 912 48 R0
SYMATTR InstName R1
SYMATTR Value 100
SYMBOL res 912 128 R0
SYMATTR InstName R2
SYMATTR Value 200
SYMBOL res 752 192 R0
SYMATTR InstName R3
SYMATTR Value 100
SYMBOL res 752 272 R0
SYMATTR InstName R4
SYMATTR Value 200
SYMBOL res 560 320 R0
SYMATTR InstName R5
SYMATTR Value 100
SYMBOL res 560 400 R0
SYMATTR InstName R6
SYMATTR Value 200
SYMBOL voltage 672 528 R0
WINDOW 123 0 0 Left 0
WINDOW 39 0 0 Left 0
SYMATTR InstName V4
SYMATTR Value 5
SYMBOL Digital\\inv 1184 96 R0
SYMATTR InstName A1
SYMBOL Digital\\or 1392 128 R0
SYMATTR InstName A2
SYMBOL Digital\\or 1392 256 R0
SYMATTR InstName A4
SYMBOL Digital\\inv 1264 288 R0
SYMATTR InstName A5
SYMBOL Digital\\or 144 688 R0
SYMATTR InstName A6
SYMBOL voltage 288 800 R0
WINDOW 123 0 0 Left 0
WINDOW 39 0 0 Left 0
SYMATTR InstName V6
SYMATTR Value 4
SYMBOL res 272 800 R90
WINDOW 0 0 56 VBottom 2
WINDOW 3 32 56 VTop 2
SYMATTR InstName R7
SYMATTR Value 100
SYMBOL Digital\\or 1520 272 R0
SYMATTR InstName A3
SYMBOL Digital\\inv 480 672 R0
SYMATTR InstName A7
SYMBOL voltage 400 720 R0
WINDOW 123 0 0 Left 0
WINDOW 39 0 0 Left 0
SYMATTR InstName V5
SYMATTR Value 4
SYMBOL voltage 480 800 R0
WINDOW 123 0 0 Left 0
WINDOW 39 0 0 Left 0
SYMATTR InstName V7
SYMATTR Value 4
SYMBOL pmos 1232 864 R270
SYMATTR InstName M1
SYMBOL voltage 1312 848 R0
WINDOW 123 0 0 Left 0
WINDOW 39 0 0 Left 0
SYMATTR InstName V8
SYMATTR Value 4
SYMBOL voltage 1136 848 R0
WINDOW 123 0 0 Left 0
WINDOW 39 0 0 Left 0
SYMATTR InstName V9
SYMATTR Value 4
SYMBOL res 1568 800 R90
WINDOW 0 0 56 VBottom 2
WINDOW 3 32 56 VTop 2
SYMATTR InstName R8
SYMATTR Value 50
TEXT -32 408 Left 2 !.tran 3
