Version 4.1
SHEET 1 4148 1760
WIRE -176 -144 -256 -144
WIRE 768 -144 -176 -144
WIRE 1296 -144 768 -144
WIRE 1328 -144 1296 -144
WIRE 128 -64 48 -64
WIRE 688 -64 128 -64
WIRE 1088 -64 688 -64
WIRE 1328 -64 1088 -64
WIRE 368 16 320 16
WIRE 608 16 368 16
WIRE 880 16 608 16
WIRE 1328 16 880 16
WIRE 320 48 320 16
WIRE 1296 48 1296 -144
WIRE 1888 96 1792 96
WIRE 1984 96 1888 96
WIRE 2224 96 2128 96
WIRE 2320 96 2224 96
WIRE 2560 96 2464 96
WIRE 2656 96 2560 96
WIRE 1792 112 1792 96
WIRE 1984 112 1984 96
WIRE 2128 112 2128 96
WIRE 2320 112 2320 96
WIRE 2464 112 2464 96
WIRE 2656 112 2656 96
WIRE 48 128 48 -64
WIRE 1888 128 1888 96
WIRE 2224 128 2224 96
WIRE 2560 128 2560 96
WIRE 1184 160 1152 160
WIRE 1296 160 1296 128
WIRE 1296 160 1264 160
WIRE 320 176 320 128
WIRE -256 192 -256 -144
WIRE 608 192 608 16
WIRE 688 192 688 -64
WIRE 768 192 768 -144
WIRE 1296 192 1296 160
WIRE 1792 192 1792 176
WIRE 2128 192 2128 176
WIRE 2464 192 2464 176
WIRE 1152 208 1152 160
WIRE 1888 208 1888 192
WIRE 2224 208 2224 192
WIRE 2560 208 2560 192
WIRE 48 256 48 208
WIRE 1152 288 1152 272
WIRE 1296 288 1296 272
WIRE 608 304 608 256
WIRE 688 304 688 256
WIRE 688 304 608 304
WIRE 768 304 768 256
WIRE 768 304 688 304
WIRE 1776 304 1760 304
WIRE 1888 304 1888 288
WIRE 1888 304 1856 304
WIRE 2112 304 2096 304
WIRE 2224 304 2224 288
WIRE 2224 304 2192 304
WIRE 2448 304 2432 304
WIRE 2560 304 2560 288
WIRE 2560 304 2528 304
WIRE 1088 320 1088 -64
WIRE -256 336 -256 272
WIRE 1792 400 1744 400
WIRE 2032 416 1920 416
WIRE 2112 416 2096 416
WIRE 2160 416 2112 416
WIRE 976 432 944 432
WIRE 1088 432 1088 400
WIRE 1088 432 1056 432
WIRE 1792 432 1760 432
WIRE 1888 432 1888 304
WIRE 1888 432 1856 432
WIRE 1920 432 1920 416
WIRE 1920 432 1888 432
WIRE 2160 432 2144 432
WIRE 2224 432 2224 304
WIRE 2144 448 2144 432
WIRE 2160 448 2144 448
WIRE 1088 464 1088 432
WIRE 2144 464 2144 448
WIRE 2160 464 2144 464
WIRE 944 480 944 432
WIRE 2160 480 1920 480
WIRE 2144 496 2144 464
WIRE 2176 496 2176 480
WIRE 2176 496 2144 496
WIRE 2176 512 2176 496
WIRE 1776 544 1712 544
WIRE 2112 544 2112 416
WIRE 2160 544 2112 544
WIRE 944 560 944 544
WIRE 1088 560 1088 544
WIRE 2160 560 2144 560
WIRE 2560 560 2560 304
WIRE 2560 560 2224 560
WIRE 1760 576 1760 432
WIRE 1760 576 1584 576
WIRE 1776 576 1760 576
WIRE 1920 576 1920 480
WIRE 1920 576 1840 576
WIRE 2000 576 1920 576
WIRE 2160 576 2064 576
WIRE 2144 592 2144 560
WIRE 2160 592 2144 592
WIRE 880 608 880 16
WIRE 2160 608 2128 608
WIRE 2144 624 2144 592
WIRE 2176 624 2176 608
WIRE 2176 624 2144 624
WIRE 2176 640 2176 624
WIRE 1600 672 1536 672
WIRE 1584 704 1584 576
WIRE 1584 704 1536 704
WIRE 1600 704 1584 704
WIRE 2128 704 2128 608
WIRE 2128 704 1664 704
WIRE 2496 704 2464 704
WIRE 768 720 736 720
WIRE 880 720 880 688
WIRE 880 720 848 720
WIRE 2496 720 2464 720
WIRE 2672 720 2560 720
WIRE 2880 720 2672 720
WIRE 2496 736 2464 736
WIRE 880 752 880 720
WIRE 2496 752 2480 752
WIRE 2672 752 2672 720
WIRE 2880 752 2880 720
WIRE 3216 752 3200 752
WIRE 3232 752 3216 752
WIRE 736 768 736 720
WIRE 2480 768 2480 752
WIRE 2496 768 2480 768
WIRE 2480 800 2480 768
WIRE 2496 800 2480 800
WIRE 2512 800 2512 768
WIRE 2512 800 2496 800
WIRE 2496 816 2496 800
WIRE 736 848 736 832
WIRE 880 848 880 832
WIRE 2672 848 2672 832
WIRE 3008 848 2672 848
WIRE 2672 864 2672 848
WIRE 2880 864 2880 816
WIRE 3200 864 3200 752
WIRE 3008 880 2976 880
WIRE 3104 880 3072 880
WIRE 3152 880 3104 880
WIRE 1376 912 1328 912
WIRE 1408 912 1376 912
WIRE 1424 912 1408 912
WIRE 1696 912 1664 912
WIRE 1760 912 1696 912
WIRE 1856 912 1760 912
WIRE 1760 928 1760 912
WIRE 3328 928 3296 928
WIRE 2880 960 2880 944
WIRE 2880 960 2800 960
WIRE 2976 960 2976 880
WIRE 2976 960 2880 960
WIRE 3104 960 3104 880
WIRE 3104 960 3008 960
WIRE 2800 976 2800 960
WIRE 2880 976 2880 960
WIRE 3008 992 3008 960
WIRE 3104 992 3104 960
WIRE 1376 1008 1376 912
WIRE 1408 1008 1376 1008
WIRE 3200 1008 3200 960
WIRE 3296 1008 3296 928
WIRE 3296 1008 3200 1008
WIRE 3328 1008 3296 1008
WIRE 1760 1024 1760 992
WIRE 2672 1072 2672 944
WIRE 2800 1072 2800 1040
WIRE 2800 1072 2672 1072
WIRE 2880 1072 2880 1056
WIRE 2880 1072 2800 1072
WIRE 3008 1072 2880 1072
WIRE 3104 1072 3104 1056
WIRE 3104 1072 3008 1072
WIRE 2800 1088 2800 1072
WIRE 3296 1088 3296 1008
WIRE 3328 1088 3296 1088
WIRE 1328 1104 1296 1104
WIRE 1408 1104 1392 1104
WIRE 1696 1104 1696 912
WIRE 1696 1104 1664 1104
WIRE 1296 1168 1296 1104
WIRE 1536 1184 1536 1168
FLAG 1296 288 0
FLAG 320 256 0
FLAG 48 336 0
FLAG -256 416 0
FLAG 2176 512 0
FLAG 2176 640 0
FLAG 1792 192 0
FLAG 1152 288 0
FLAG -176 -144 UMBILICAL
FLAG 128 -64 BATT_1
FLAG 368 16 BATT_2
FLAG 1088 560 0
FLAG 944 560 0
FLAG 880 848 0
FLAG 736 848 0
FLAG 1296 160 Umbilical_comparator
FLAG 1088 432 BATT_1_comparator
FLAG 880 720 BATT_2_comparator
FLAG 1744 400 Umbilical_comparator
FLAG 1712 544 BATT_1_comparator
FLAG 1536 672 BATT_2_comparator
FLAG 688 304 LDO_POWER
FLAG 1536 1184 0
FLAG 1760 1024 0
FLAG 1296 1168 0
FLAG 1328 912 LDO_POWER
FLAG 1856 912 LOGIC_POWER
FLAG 1536 704 LOGIC_POWER
FLAG 1888 96 Umbilical_gate_signal
FLAG 2800 1088 0
FLAG 2464 704 Umbilical_gate_signal
FLAG 2464 720 BATT_1_gate_signal
FLAG 2464 736 BATT_2_gate_signal
FLAG 2496 816 0
FLAG 3216 752 LOGIC_POWER
FLAG 3392 928 Umbilical_gate_signal
FLAG 3392 1008 BATT_1_gate_signal
FLAG 3392 1088 BATT_2_gate_signal
FLAG 3200 1088 0
FLAG 1984 192 0
FLAG 2128 192 0
FLAG 2320 192 0
FLAG 2096 304 BATT_1
FLAG 2224 96 BATT_1_gate_signal
FLAG 2464 192 0
FLAG 2656 192 0
FLAG 2432 304 BATT_2
FLAG 2560 96 BATT_2_gate_signal
FLAG 1760 304 UMBILICAL
SYMBOL voltage -256 320 R0
WINDOW 123 0 0 Left 0
WINDOW 39 0 0 Left 0
WINDOW 3 24 96 Left 1
SYMATTR Value PULSE(0 48 0 400m 20m 100m 5 1)
SYMATTR InstName UMBILICAL
SYMBOL voltage 48 240 R0
WINDOW 123 0 0 Left 0
WINDOW 39 0 0 Left 0
WINDOW 3 24 96 Left 1
SYMATTR Value PULSE(0 16.8 20m 100m 500u 500m 5 1)
SYMATTR InstName BATT_1
SYMBOL voltage 320 160 R0
WINDOW 123 0 0 Left 0
WINDOW 39 0 0 Left 0
WINDOW 3 24 96 Left 1
SYMATTR Value PULSE(0 16.8 0 20u 0.1 10 11 1)
SYMATTR InstName BATT_2
SYMBOL res 1280 32 R0
SYMATTR InstName R1
SYMATTR Value 10000
SYMBOL res 1280 176 R0
SYMATTR InstName R2
SYMATTR Value 20000
SYMBOL Digital\\inv 2032 352 R0
WINDOW 3 44 47 Left 1
SYMATTR Value Vhigh = 5
SYMATTR InstName A1
SYMBOL Digital\\or 2192 384 R0
WINDOW 3 30 62 Left 1
SYMATTR Value Vhigh = 5, Td = 33n
SYMATTR InstName A2
SYMBOL Digital\\or 2192 512 R0
WINDOW 3 10 34 Left 1
WINDOW 0 8 17 Left 2
SYMATTR Value Vhigh = 5, Td = 200n
SYMATTR InstName A4
SYMBOL Digital\\inv 2000 512 R0
WINDOW 3 -2 91 Left 1
SYMATTR Value Vhigh = 5
SYMATTR InstName A5
SYMBOL cap 1776 112 R0
SYMATTR InstName C1
SYMATTR Value 500nf
SYMBOL cap 1136 208 R0
WINDOW 3 26 47 Left 2
SYMATTR Value 500n
SYMATTR InstName C2
SYMBOL Digital\\diffschmitt 1600 624 R0
WINDOW 3 303 112 Right 1
SYMATTR Value Trise=1u, Vhigh = 5, Vt = 0.1, Vh = 0.05
SYMATTR InstName A7
SYMBOL Digital\\diffschmitt 1776 496 R0
WINDOW 3 170 115 Right 1
SYMATTR Value Trise=1u, Vhigh = 5, Vt = 0.1, Vh = 0.05
SYMATTR InstName A8
SYMBOL Digital\\diffschmitt 1792 352 R0
WINDOW 3 293 109 Right 1
SYMATTR Value Trise=1u, Vhigh = 5, Vt = 0.1, Vh = 0.05, Td = 10n
SYMATTR InstName A9
SYMBOL res 1280 144 R90
WINDOW 0 0 56 VBottom 2
WINDOW 3 32 56 VTop 2
SYMATTR InstName R8
SYMATTR Value 10000
SYMBOL bv -256 176 R0
WINDOW 3 24 96 Left 1
SYMATTR Value V=white(2e4*time) / 13
SYMATTR InstName UMBILICAL_Noise
SYMBOL bv 48 112 R0
WINDOW 3 24 96 Left 1
SYMATTR Value V=white(2e4*time) / 13
SYMATTR InstName BATT_1_Noise
SYMBOL bv 320 32 R0
WINDOW 3 24 96 Left 1
SYMATTR Value V=white(2e4*time) / 13
SYMATTR InstName BATT_2_Noise
SYMBOL res 1072 304 R0
SYMATTR InstName R3
SYMATTR Value 10000
SYMBOL res 1072 448 R0
SYMATTR InstName R4
SYMATTR Value 20000
SYMBOL cap 928 480 R0
WINDOW 3 26 47 Left 2
SYMATTR Value 500n
SYMATTR InstName C3
SYMBOL res 1072 416 R90
WINDOW 0 0 56 VBottom 2
WINDOW 3 32 56 VTop 2
SYMATTR InstName R5
SYMATTR Value 10000
SYMBOL res 864 592 R0
SYMATTR InstName R6
SYMATTR Value 10000
SYMBOL res 864 736 R0
SYMATTR InstName R12
SYMATTR Value 20000
SYMBOL cap 720 768 R0
WINDOW 3 26 47 Left 2
SYMATTR Value 250n
SYMATTR InstName C4
SYMBOL res 864 704 R90
WINDOW 0 0 56 VBottom 2
WINDOW 3 32 56 VTop 2
SYMATTR InstName R13
SYMATTR Value 5000
SYMBOL res 1872 192 R0
SYMATTR InstName R10
SYMATTR Value 220
SYMBOL schottky 752 192 R0
SYMATTR InstName D4
SYMBOL schottky 672 192 R0
SYMATTR InstName D1
SYMBOL schottky 592 192 R0
SYMATTR InstName D2
SYMBOL cap 1392 1088 R90
WINDOW 0 0 32 VBottom 2
WINDOW 3 32 32 VTop 2
SYMATTR InstName C7
SYMATTR Value 1n
SYMBOL cap 1744 928 R0
SYMATTR InstName C8
SYMATTR Value 4.7µ
SYMATTR SpiceLine Rser=1.5m
SYMBOL ADM7170-5.0 1536 1008 R0
SYMATTR InstName U1
SYMBOL res 1968 96 R0
SYMATTR InstName R9
SYMATTR Value 10000
SYMBOL Digital\\diffschmitt 3008 800 R0
WINDOW 3 165 -8 Right 0
SYMATTR Value Trise=1u, Vhigh = 5, Vt = 0.1, Vh = 0.05, Vlow = -10
SYMATTR InstName A3
SYMBOL res 2656 736 R0
SYMATTR InstName R16
SYMATTR Value 10000
SYMBOL res 2656 848 R0
SYMATTR InstName R17
SYMATTR Value 9000
SYMBOL res 2864 848 R0
SYMATTR InstName R18
SYMATTR Value 5000
SYMBOL res 2864 960 R0
SYMATTR InstName R19
SYMATTR Value 20000
SYMBOL cap 2784 976 R0
SYMATTR InstName C9
SYMATTR Value 1µ
SYMBOL pmos 3152 960 M180
SYMATTR InstName M1
SYMBOL cap 3088 992 R0
SYMATTR InstName C10
SYMATTR Value 1p
SYMBOL Digital\\and 2528 672 R0
WINDOW 3 16 52 Left 2
SYMATTR Value Vhigh = 2
SYMATTR InstName A6
SYMBOL schottky 3328 1104 R270
WINDOW 0 32 32 VTop 2
WINDOW 3 0 32 VBottom 2
SYMATTR InstName D5
SYMBOL schottky 3328 1024 R270
WINDOW 0 32 32 VTop 2
WINDOW 3 0 32 VBottom 2
SYMATTR InstName D6
SYMBOL schottky 3328 944 R270
WINDOW 0 32 32 VTop 2
WINDOW 3 0 32 VBottom 2
SYMATTR InstName D7
SYMBOL res 3184 992 R0
SYMATTR InstName R20
SYMATTR Value 15000
SYMBOL res 2992 976 R0
SYMATTR InstName R21
SYMATTR Value 1000
SYMBOL schottky 2864 752 R0
SYMATTR InstName D11
SYMBOL schottky 1904 192 R180
WINDOW 0 24 64 Left 2
WINDOW 3 24 0 Left 2
SYMATTR InstName D3
SYMBOL res 1872 288 R90
WINDOW 0 0 56 VBottom 2
WINDOW 3 32 56 VTop 2
SYMATTR InstName R23
SYMATTR Value 2000
SYMBOL cap 2112 112 R0
SYMATTR InstName C5
SYMATTR Value 500nf
SYMBOL res 2304 96 R0
SYMATTR InstName R11
SYMATTR Value 10000
SYMBOL schottky 2240 192 R180
WINDOW 0 24 64 Left 2
WINDOW 3 24 0 Left 2
SYMATTR InstName D8
SYMBOL res 2208 288 R90
WINDOW 0 0 56 VBottom 2
WINDOW 3 32 56 VTop 2
SYMATTR InstName R14
SYMATTR Value 2000
SYMBOL cap 2448 112 R0
SYMATTR InstName C6
SYMATTR Value 500nf
SYMBOL res 2544 192 R0
SYMATTR InstName R15
SYMATTR Value 220
SYMBOL res 2640 96 R0
SYMATTR InstName R22
SYMATTR Value 10000
SYMBOL schottky 2576 192 R180
WINDOW 0 24 64 Left 2
WINDOW 3 24 0 Left 2
SYMATTR InstName D9
SYMBOL res 2544 288 R90
WINDOW 0 0 56 VBottom 2
WINDOW 3 32 56 VTop 2
SYMATTR InstName R24
SYMATTR Value 2000
SYMBOL res 2208 192 R0
SYMATTR InstName R7
SYMATTR Value 220
TEXT -40 -336 Left 2 !.tran 1
TEXT 3232 848 Left 2 ;Something with small voltage drop to fully act as a high side switch
TEXT 2704 328 Left 2 ;Extra pull up resistors so the gate wont be floating if it is disconected somehow
TEXT 2704 288 Left 2 ;Diodes to get a gradual turn on (for delaying purposes)
