* D:\General Data\Files\Projects\1) Major Projects\SOAR PMB REV 2\Code\SOAR_PMB_Rev_2\SPICE SIMS\Switching Logic.asc
* Generated by LTspice 24.1.4 for Windows.
V§UMBILICAL N008 0 PULSE(0 48 0 400m 20m 100m 5 1)
V§BATT_1 N005 0 PULSE(0 16.8 20m 100m 500u 500m 5 1)
V§BATT_2 N002 0 PULSE(0 16.8 0 20u 0.1 10 11 1)
R1 UMBILICAL Umbilical_comparator 10000
R2 Umbilical_comparator 0 20000
A1 N006 0 0 0 0 N009 0 0 BUF Vhigh = 5
A2 N009 0 0 0 N012 0 N011 0 OR Vhigh = 5, Td = 33n
A4 N009 0 N013 0 N014 0 N007 0 OR Vhigh = 5, Td = 200n
A5 N012 0 0 0 0 N013 0 0 BUF Vhigh = 5
C1 Umbilical_gate_signal 0 500nf
C2 N001 0 500n
A7 BATT_2_comparator LOGIC_POWER 0 0 0 N014 0 0 SCHMITT Trise=1u, Vhigh = 5, Vt = 0.1, Vh = 0.05
A8 BATT_1_comparator LOGIC_POWER 0 0 0 N012 0 0 SCHMITT Trise=1u, Vhigh = 5, Vt = 0.1, Vh = 0.05
A9 Umbilical_comparator LOGIC_POWER 0 0 0 N006 0 0 SCHMITT Trise=1u, Vhigh = 5, Vt = 0.1, Vh = 0.05, Td = 10n
R8 Umbilical_comparator N001 10000
B§UMBILICAL_Noise UMBILICAL N008 V=white(2e4*time) / 13
BATT_1_Noise BATT_1 N005 V=white(2e4*time) / 13
BATT_2_Noise BATT_2 N002 V=white(2e4*time) / 13
R3 BATT_1 BATT_1_comparator 10000
R4 BATT_1_comparator 0 20000
C3 N010 0 500n
R5 BATT_1_comparator N010 10000
R6 BATT_2 BATT_2_comparator 10000
R12 BATT_2_comparator 0 20000
C4 N015 0 250n
R13 BATT_2_comparator N015 5000
R10 N003 N006 220
D4 UMBILICAL LDO_POWER D
D1 BATT_1 LDO_POWER D
D2 BATT_2 LDO_POWER D
C7 N022 0 1n
C8 LOGIC_POWER 0 4.7µ Rser=1.5m
X§U1 LDO_POWER LOGIC_POWER LDO_POWER N022 LOGIC_POWER 0 ADM7170-5.0
R9 Umbilical_gate_signal 0 10000
A3 N017 N019 0 0 0 N020 0 0 SCHMITT Trise=1u, Vhigh = 5, Vt = 0.1, Vh = 0.05, Vlow = -10
R16 N016 N017 10000
R17 N017 0 9000
R18 N018 N019 5000
R19 N019 0 20000
C9 N019 0 1µ
M1 N021 N020 LOGIC_POWER LOGIC_POWER PMOS
C10 N020 0 1p
A6 Umbilical_gate_signal BATT_1_gate_signal BATT_2_gate_signal 0 0 0 N016 0 AND Vhigh = 2
D5 N021 BATT_2_gate_signal D
D6 N021 BATT_1_gate_signal D
D7 N021 Umbilical_gate_signal D
R20 N021 0 15000
R21 N020 0 1000
D11 N016 N018 D
D3 N003 Umbilical_gate_signal D
R23 N006 UMBILICAL 2000
C5 BATT_1_gate_signal 0 500nf
R11 BATT_1_gate_signal 0 10000
D8 N011 BATT_1_gate_signal D
C6 BATT_2_gate_signal 0 500nf
R15 N004 N007 220
R22 BATT_2_gate_signal 0 10000
D9 N004 BATT_2_gate_signal D
R24 N007 BATT_2 2000
.model D D
.lib C:\Users\reinz\AppData\Local\LTspice\lib\cmp\standard.dio
.model NMOS NMOS
.model PMOS PMOS
.lib C:\Users\reinz\AppData\Local\LTspice\lib\cmp\standard.mos
.tran 1
* Something with small voltage drop to fully act as a high side switch
* Extra pull up resistors so the gate wont be floating if it is disconected somehow
* Diodes to get a gradual turn on (for delaying purposes)
.lib ADM7170-5.0.sub
.backanno
.end
