Version 4.1
SHEET 1 2964 1760
WIRE 960 -144 -32 -144
WIRE 1040 -144 960 -144
WIRE 768 -64 176 -64
WIRE 1040 -64 768 -64
WIRE 576 16 400 16
WIRE 1040 16 576 16
WIRE -32 176 -32 -144
WIRE 176 176 176 -64
WIRE 400 176 400 16
WIRE 1152 192 1056 192
WIRE 1488 192 1392 192
WIRE 1712 192 1616 192
WIRE 1056 208 1056 192
WIRE 1392 208 1392 192
WIRE 1616 208 1616 192
WIRE 1152 272 1152 192
WIRE 1488 272 1488 192
WIRE 1712 272 1712 192
WIRE 1056 288 1056 272
WIRE 1392 288 1392 272
WIRE 1616 288 1616 272
WIRE 960 320 960 -144
WIRE 864 400 848 400
WIRE 960 400 944 400
WIRE 1056 400 960 400
WIRE 848 416 848 400
WIRE 1296 416 1184 416
WIRE 1376 416 1360 416
WIRE 1424 416 1376 416
WIRE 1056 432 1024 432
WIRE 1152 432 1152 352
WIRE 1152 432 1120 432
WIRE 1184 432 1184 416
WIRE 1184 432 1152 432
WIRE 1488 432 1488 352
WIRE 768 464 768 -64
WIRE 1424 480 1184 480
WIRE 1440 496 1440 480
WIRE 768 544 672 544
WIRE 1040 544 768 544
WIRE 1376 544 1376 416
WIRE 1424 544 1376 544
WIRE 1552 560 1488 560
WIRE 1024 576 1024 432
WIRE 1024 576 848 576
WIRE 1040 576 1024 576
WIRE 1184 576 1184 480
WIRE 1184 576 1104 576
WIRE 1232 576 1184 576
WIRE 1712 576 1712 352
WIRE 1712 576 1616 576
WIRE 576 592 576 16
WIRE 1232 608 1232 576
WIRE 1264 608 1232 608
WIRE 1424 608 1328 608
WIRE 1440 640 1440 608
WIRE 1568 656 1568 624
WIRE 1584 656 1568 656
WIRE 576 672 480 672
WIRE 864 672 576 672
WIRE 1584 672 1584 656
WIRE 848 704 848 576
WIRE 848 704 672 704
WIRE 864 704 848 704
WIRE 1552 704 1552 624
WIRE 1552 704 928 704
WIRE 672 928 672 704
WIRE 672 1024 672 1008
FLAG 960 480 0
FLAG 768 624 0
FLAG 576 752 0
FLAG 672 1104 0
FLAG 400 256 0
FLAG 176 256 0
FLAG -32 256 0
FLAG 1440 496 0
FLAG 1440 640 0
FLAG 1056 288 0
FLAG 848 480 0
FLAG 672 608 0
FLAG 480 736 0
FLAG 1584 672 0
FLAG 1392 288 0
FLAG 1616 288 0
SYMBOL voltage -32 160 R0
WINDOW 123 0 0 Left 0
WINDOW 39 0 0 Left 0
SYMATTR InstName V1
SYMATTR Value PULSE(0 20 0 400m 20m 100m 5 1)
SYMBOL voltage 176 160 R0
WINDOW 123 0 0 Left 0
WINDOW 39 0 0 Left 0
SYMATTR InstName V2
SYMATTR Value PULSE(0 20 0 100m 4u 1 5 1)
SYMBOL voltage 400 160 R0
WINDOW 123 0 0 Left 0
WINDOW 39 0 0 Left 0
SYMATTR InstName V3
SYMATTR Value PULSE(0 20 1 0.1 0.1 10 11 1)
SYMBOL res 944 304 R0
WINDOW 3 36 76 Left 1
SYMATTR InstName R1
SYMATTR Value 10000
SYMBOL res 944 384 R0
WINDOW 3 36 76 Left 1
SYMATTR InstName R2
SYMATTR Value 20000
SYMBOL res 752 448 R0
SYMATTR InstName R3
SYMATTR Value 100
SYMBOL res 752 528 R0
SYMATTR InstName R4
SYMATTR Value 200
SYMBOL res 560 576 R0
SYMATTR InstName R5
SYMATTR Value 100
SYMBOL res 560 656 R0
SYMATTR InstName R6
SYMATTR Value 200
SYMBOL voltage 672 1008 R0
WINDOW 123 0 0 Left 0
WINDOW 39 0 0 Left 0
SYMATTR InstName V4
SYMATTR Value 5
SYMBOL Digital\\inv 1296 352 R0
SYMATTR InstName A1
SYMBOL Digital\\or 1456 384 R0
SYMATTR InstName A2
SYMBOL Digital\\or 1456 512 R0
SYMATTR InstName A4
SYMBOL Digital\\inv 1264 544 R0
SYMATTR InstName A5
SYMBOL Digital\\or 1584 528 R0
SYMATTR InstName A3
SYMBOL res 656 912 R0
SYMATTR InstName R9
SYMATTR Value 0.1
SYMBOL res 1136 256 R0
SYMATTR InstName R10
SYMATTR Value 2000
SYMBOL cap 1040 208 R0
SYMATTR InstName C1
SYMATTR Value 500nf
SYMBOL cap 832 416 R0
SYMATTR InstName C2
SYMATTR Value 500n
SYMBOL cap 656 544 R0
SYMATTR InstName C3
SYMATTR Value 500n
SYMBOL cap 464 672 R0
SYMATTR InstName C4
SYMATTR Value 500n
SYMBOL Digital\\diffschmitt 864 624 R0
WINDOW 3 303 112 Right 1
SYMATTR Value Trise=1u, Vhigh = 5, Vt = 0.1, Vh = 0.05
SYMATTR InstName A7
SYMBOL Digital\\diffschmitt 1040 496 R0
WINDOW 3 170 115 Right 1
SYMATTR Value Trise=1u, Vhigh = 5, Vt = 0.1, Vh = 0.05
SYMATTR InstName A8
SYMBOL Digital\\diffschmitt 1056 352 R0
WINDOW 3 293 109 Right 1
SYMATTR Value Trise=1u, Vhigh = 5, Vt = 0.1, Vh = 0.05
SYMATTR InstName A9
SYMBOL res 960 384 R90
WINDOW 0 0 56 VBottom 2
WINDOW 3 32 56 VTop 2
SYMATTR InstName R8
SYMATTR Value 10000
SYMBOL res 1472 256 R0
SYMATTR InstName R7
SYMATTR Value 2000
SYMBOL cap 1376 208 R0
SYMATTR InstName C5
SYMATTR Value 500nf
SYMBOL res 1696 256 R0
SYMATTR InstName R11
SYMATTR Value 2000
SYMBOL cap 1600 208 R0
SYMATTR InstName C6
SYMATTR Value 500nf
TEXT -32 408 Left 2 !.tran 3
