Version 4.1
SHEET 1 6740 1972
WIRE -816 -2144 -1120 -2144
WIRE -720 -2144 -736 -2144
WIRE -544 -2144 -720 -2144
WIRE -512 -2144 -544 -2144
WIRE -944 -2064 -1120 -2064
WIRE -848 -2064 -864 -2064
WIRE -560 -2064 -848 -2064
WIRE -512 -2064 -560 -2064
WIRE -1072 -1984 -1120 -1984
WIRE -976 -1984 -992 -1984
WIRE -576 -1984 -976 -1984
WIRE -512 -1984 -576 -1984
WIRE 1104 -1984 1088 -1984
WIRE 432 -1952 384 -1952
WIRE 1088 -1952 1088 -1984
WIRE 432 -1936 432 -1952
WIRE -1056 -1904 -1056 -1936
WIRE -928 -1904 -928 -2016
WIRE -800 -1904 -800 -2096
WIRE 384 -1888 384 -1952
WIRE 528 -1888 512 -1888
WIRE -544 -1872 -544 -2144
WIRE -416 -1872 -544 -1872
WIRE -288 -1872 -352 -1872
WIRE -224 -1856 -224 -1872
WIRE -144 -1856 -224 -1856
WIRE 1088 -1856 1088 -1872
WIRE -144 -1840 -224 -1840
WIRE 16 -1840 -80 -1840
WIRE 304 -1840 16 -1840
WIRE 512 -1840 512 -1888
WIRE 512 -1840 464 -1840
WIRE 816 -1840 608 -1840
WIRE 912 -1840 816 -1840
WIRE 1040 -1840 992 -1840
WIRE -560 -1824 -560 -2064
WIRE -416 -1824 -560 -1824
WIRE -288 -1824 -352 -1824
WIRE -224 -1824 -224 -1840
WIRE -144 -1824 -208 -1824
WIRE -144 -1808 -192 -1808
WIRE 816 -1808 816 -1840
WIRE 16 -1792 16 -1840
WIRE 32 -1792 16 -1792
WIRE 144 -1792 96 -1792
WIRE 304 -1792 272 -1792
WIRE 608 -1792 608 -1840
WIRE 608 -1792 480 -1792
WIRE -576 -1776 -576 -1984
WIRE -416 -1776 -576 -1776
WIRE -288 -1776 -352 -1776
WIRE -208 -1776 -208 -1824
WIRE -208 -1776 -224 -1776
WIRE -144 -1776 -144 -1792
WIRE -128 -1776 -128 -1792
WIRE -128 -1776 -144 -1776
WIRE 144 -1776 128 -1776
WIRE 272 -1776 272 -1792
WIRE 272 -1776 208 -1776
WIRE -1056 -1760 -1056 -1824
WIRE -1056 -1760 -1088 -1760
WIRE -928 -1760 -928 -1824
WIRE -928 -1760 -1056 -1760
WIRE -800 -1760 -800 -1824
WIRE -800 -1760 -928 -1760
WIRE 128 -1760 128 -1776
WIRE 144 -1760 128 -1760
WIRE 128 -1744 128 -1760
WIRE 144 -1744 128 -1744
WIRE -416 -1728 -464 -1728
WIRE -288 -1728 -352 -1728
WIRE -192 -1728 -192 -1808
WIRE -192 -1728 -224 -1728
WIRE 32 -1728 -16 -1728
WIRE 144 -1728 96 -1728
WIRE 304 -1728 304 -1744
WIRE 384 -1728 384 -1744
WIRE 128 -1712 128 -1744
WIRE 160 -1712 160 -1728
WIRE 160 -1712 128 -1712
WIRE -928 -1696 -928 -1760
WIRE 512 -1696 512 -1840
WIRE 544 -1696 512 -1696
WIRE 816 -1696 816 -1728
WIRE 1088 -1696 1088 -1760
WIRE 1104 -1696 1088 -1696
WIRE 608 -1680 608 -1696
WIRE 640 -1680 608 -1680
WIRE 640 -1664 624 -1664
WIRE 736 -1664 704 -1664
WIRE 544 -1648 496 -1648
WIRE 640 -1648 608 -1648
WIRE 624 -1632 624 -1664
WIRE 640 -1632 624 -1632
WIRE 1264 -1616 1200 -1616
WIRE 1392 -1616 1344 -1616
WIRE 1488 -1616 1456 -1616
WIRE 544 -1600 480 -1600
WIRE 640 -1600 640 -1616
WIRE 640 -1600 608 -1600
WIRE -928 -1584 -928 -1616
WIRE 400 -1584 320 -1584
WIRE 480 -1584 480 -1600
WIRE 480 -1584 464 -1584
WIRE 624 -1584 624 -1632
WIRE 656 -1584 656 -1616
WIRE 656 -1584 624 -1584
WIRE 736 -1584 736 -1664
WIRE 768 -1584 736 -1584
WIRE 400 -1552 320 -1552
WIRE 512 -1536 512 -1696
WIRE 544 -1536 512 -1536
WIRE 832 -1536 832 -1584
WIRE 880 -1536 832 -1536
WIRE 608 -1520 608 -1536
WIRE 640 -1520 608 -1520
WIRE 880 -1520 864 -1520
WIRE 960 -1520 944 -1520
WIRE 1088 -1520 1040 -1520
WIRE 1200 -1520 1200 -1616
WIRE 1200 -1520 1088 -1520
WIRE 1328 -1520 1200 -1520
WIRE 1488 -1520 1488 -1616
WIRE 1488 -1520 1408 -1520
WIRE 1504 -1520 1488 -1520
WIRE 1600 -1520 1504 -1520
WIRE 640 -1504 624 -1504
WIRE 768 -1504 704 -1504
WIRE 880 -1504 832 -1504
WIRE 544 -1488 496 -1488
WIRE 640 -1488 608 -1488
WIRE 864 -1488 864 -1520
WIRE 880 -1488 864 -1488
WIRE 624 -1472 624 -1504
WIRE 640 -1472 624 -1472
WIRE 880 -1472 832 -1472
WIRE 864 -1456 864 -1488
WIRE 896 -1456 896 -1472
WIRE 896 -1456 864 -1456
WIRE 544 -1440 480 -1440
WIRE 640 -1440 640 -1456
WIRE 640 -1440 608 -1440
WIRE 1504 -1440 1504 -1520
WIRE 400 -1424 320 -1424
WIRE 480 -1424 480 -1440
WIRE 480 -1424 464 -1424
WIRE 624 -1424 624 -1472
WIRE 656 -1424 656 -1456
WIRE 656 -1424 624 -1424
WIRE 768 -1424 736 -1424
WIRE 832 -1424 832 -1472
WIRE 400 -1392 320 -1392
WIRE 512 -1376 512 -1536
WIRE 544 -1376 512 -1376
WIRE 608 -1360 608 -1376
WIRE 640 -1360 608 -1360
WIRE 1504 -1360 1504 -1376
WIRE 640 -1344 624 -1344
WIRE 736 -1344 736 -1424
WIRE 736 -1344 704 -1344
WIRE 544 -1328 496 -1328
WIRE 640 -1328 608 -1328
WIRE 624 -1312 624 -1344
WIRE 640 -1312 624 -1312
WIRE 1264 -1296 1200 -1296
WIRE 1392 -1296 1344 -1296
WIRE 1488 -1296 1456 -1296
WIRE 544 -1280 480 -1280
WIRE 640 -1280 640 -1296
WIRE 640 -1280 608 -1280
WIRE 400 -1264 320 -1264
WIRE 480 -1264 480 -1280
WIRE 480 -1264 464 -1264
WIRE 624 -1264 624 -1312
WIRE 656 -1264 656 -1296
WIRE 656 -1264 624 -1264
WIRE 400 -1232 320 -1232
WIRE 1088 -1200 1088 -1520
WIRE 1200 -1200 1200 -1296
WIRE 1200 -1200 1088 -1200
WIRE 1328 -1200 1200 -1200
WIRE 1488 -1200 1488 -1296
WIRE 1488 -1200 1408 -1200
WIRE 1504 -1200 1488 -1200
WIRE 1600 -1200 1504 -1200
WIRE 1088 -1152 1088 -1200
WIRE 1504 -1120 1504 -1200
WIRE 1088 -1040 1088 -1072
WIRE 1504 -1040 1504 -1056
WIRE 2208 -640 2144 -640
WIRE 2336 -640 2288 -640
WIRE 2464 -640 2432 -640
WIRE 2576 -640 2464 -640
WIRE 2688 -640 2576 -640
WIRE 2720 -640 2688 -640
WIRE 2976 -640 2816 -640
WIRE 2688 -592 2688 -640
WIRE 2464 -576 2464 -640
WIRE 2576 -560 2576 -640
WIRE 2416 -464 2416 -592
WIRE 2464 -464 2464 -496
WIRE 2464 -464 2416 -464
WIRE 2576 -464 2576 -496
WIRE 2576 -464 2464 -464
WIRE 2688 -464 2688 -528
WIRE 2688 -464 2576 -464
WIRE 2736 -464 2736 -592
WIRE 2736 -464 2688 -464
WIRE 2800 -464 2736 -464
WIRE 2464 -416 2464 -464
WIRE 2688 -416 2688 -464
WIRE 2688 -304 2688 -336
WIRE 2464 -288 2464 -336
WIRE 2208 -208 2128 -208
WIRE 2272 -208 2208 -208
WIRE 2384 -208 2352 -208
WIRE 2416 -208 2384 -208
WIRE 2208 -176 2208 -208
WIRE 2384 -176 2384 -208
WIRE -176 -144 -256 -144
WIRE 608 -144 -176 -144
WIRE 736 -144 608 -144
WIRE 1296 -144 816 -144
WIRE 1328 -144 1296 -144
WIRE 128 -64 48 -64
WIRE 688 -64 128 -64
WIRE 752 -64 688 -64
WIRE 1088 -64 832 -64
WIRE 1328 -64 1088 -64
WIRE 2208 -48 2208 -96
WIRE 2384 -48 2384 -112
WIRE 2464 -48 2464 -192
WIRE 368 16 320 16
WIRE 768 16 368 16
WIRE 880 16 768 16
WIRE 960 16 880 16
WIRE 1328 16 1040 16
WIRE 320 48 320 16
WIRE 1296 48 1296 -144
WIRE 2224 80 2144 80
WIRE 2336 80 2304 80
WIRE 2464 80 2432 80
WIRE 2576 80 2464 80
WIRE 2688 80 2576 80
WIRE 2720 80 2688 80
WIRE 2976 80 2976 -640
WIRE 2976 80 2816 80
WIRE 48 128 48 -64
WIRE 2688 128 2688 80
WIRE 2464 144 2464 80
WIRE 1296 160 1296 128
WIRE 1344 160 1296 160
WIRE 1456 160 1424 160
WIRE 1472 160 1456 160
WIRE 2576 160 2576 80
WIRE 320 176 320 128
WIRE -256 192 -256 -144
WIRE 608 192 608 -144
WIRE 688 192 688 -64
WIRE 768 192 768 16
WIRE 1296 192 1296 160
WIRE 1456 208 1456 160
WIRE 48 256 48 208
WIRE 2416 256 2416 128
WIRE 2464 256 2464 224
WIRE 2464 256 2416 256
WIRE 2576 256 2576 224
WIRE 2576 256 2464 256
WIRE 2688 256 2688 192
WIRE 2688 256 2576 256
WIRE 2736 256 2736 128
WIRE 2736 256 2688 256
WIRE 2800 256 2736 256
WIRE 1296 288 1296 272
WIRE 1456 288 1456 272
WIRE 608 304 608 256
WIRE 688 304 688 256
WIRE 688 304 608 304
WIRE 768 304 768 256
WIRE 768 304 688 304
WIRE 2464 304 2464 256
WIRE 2688 304 2688 256
WIRE 1088 320 1088 -64
WIRE -256 336 -256 272
WIRE 2688 416 2688 384
WIRE 1088 432 1088 400
WIRE 1136 432 1088 432
WIRE 1248 432 1216 432
WIRE 1264 432 1248 432
WIRE 2464 432 2464 384
WIRE 1088 464 1088 432
WIRE 1248 480 1248 432
WIRE 2208 512 2128 512
WIRE 2272 512 2208 512
WIRE 2384 512 2352 512
WIRE 2416 512 2384 512
WIRE 2208 544 2208 512
WIRE 2384 544 2384 512
WIRE 1088 560 1088 544
WIRE 1248 560 1248 544
WIRE -144 608 -192 608
WIRE -112 608 -144 608
WIRE 176 608 144 608
WIRE 240 608 176 608
WIRE 336 608 240 608
WIRE 880 608 880 16
WIRE 240 624 240 608
WIRE 2208 672 2208 624
WIRE 2384 672 2384 608
WIRE 2464 672 2464 528
WIRE -144 704 -144 608
WIRE -112 704 -144 704
WIRE 240 720 240 688
WIRE 880 720 880 688
WIRE 928 720 880 720
WIRE 1040 720 1008 720
WIRE 1056 720 1040 720
WIRE 880 752 880 720
WIRE 1040 768 1040 720
WIRE 2208 784 2144 784
WIRE 2336 784 2288 784
WIRE 2464 784 2432 784
WIRE 2576 784 2464 784
WIRE 2688 784 2576 784
WIRE 2720 784 2688 784
WIRE 2976 784 2976 80
WIRE 2976 784 2816 784
WIRE 3136 784 2976 784
WIRE 3392 784 3136 784
WIRE -192 800 -224 800
WIRE -112 800 -128 800
WIRE 176 800 176 608
WIRE 176 800 144 800
WIRE 2688 832 2688 784
WIRE 3136 832 3136 784
WIRE 880 848 880 832
WIRE 1040 848 1040 832
WIRE 2464 848 2464 784
WIRE 3392 848 3392 784
WIRE -224 864 -224 800
WIRE 2576 864 2576 784
WIRE 16 880 16 864
WIRE 1280 944 1264 944
WIRE 1296 944 1280 944
WIRE 2416 960 2416 832
WIRE 2464 960 2464 928
WIRE 2464 960 2416 960
WIRE 2576 960 2576 928
WIRE 2576 960 2464 960
WIRE 2688 960 2688 896
WIRE 2688 960 2576 960
WIRE 2736 960 2736 832
WIRE 2736 960 2688 960
WIRE 2800 960 2736 960
WIRE 928 976 912 976
WIRE 1632 976 1616 976
WIRE 3136 976 3136 912
WIRE 2464 1008 2464 960
WIRE 2688 1008 2688 960
WIRE 816 1072 768 1072
WIRE 912 1072 912 976
WIRE 912 1072 880 1072
WIRE 1120 1072 1072 1072
WIRE 1184 1088 1152 1088
WIRE 1264 1088 1264 944
WIRE 1264 1088 1248 1088
WIRE 816 1104 784 1104
WIRE 1072 1104 1072 1072
WIRE 1072 1104 880 1104
WIRE 1152 1104 1152 1088
WIRE 1184 1104 1152 1104
WIRE 3136 1104 3136 1040
WIRE 3392 1104 3392 928
WIRE 1152 1120 1152 1104
WIRE 1184 1120 1152 1120
WIRE 2688 1120 2688 1088
WIRE 1104 1136 944 1136
WIRE 1184 1136 1168 1136
WIRE 2464 1136 2464 1088
WIRE 1152 1152 1152 1120
WIRE 1200 1152 1200 1136
WIRE 1200 1152 1152 1152
WIRE 1200 1168 1200 1152
WIRE 800 1216 736 1216
WIRE 944 1216 944 1136
WIRE 944 1216 864 1216
WIRE 1072 1216 1072 1104
WIRE 1088 1216 1072 1216
WIRE 1184 1216 1152 1216
WIRE 2208 1216 2128 1216
WIRE 2272 1216 2208 1216
WIRE 2384 1216 2352 1216
WIRE 2416 1216 2384 1216
WIRE 1184 1232 1168 1232
WIRE 1616 1232 1616 976
WIRE 1616 1232 1248 1232
WIRE -320 1248 -336 1248
WIRE 784 1248 784 1104
WIRE 784 1248 608 1248
WIRE 800 1248 784 1248
WIRE 1072 1248 864 1248
WIRE 1184 1248 1136 1248
WIRE 2208 1248 2208 1216
WIRE 2384 1248 2384 1216
WIRE -320 1264 -352 1264
WIRE 0 1264 -256 1264
WIRE 1168 1264 1168 1232
WIRE 1184 1264 1168 1264
WIRE -352 1280 -352 1264
WIRE -320 1280 -352 1280
WIRE 1088 1280 1072 1280
WIRE 1184 1280 1152 1280
WIRE -352 1296 -352 1280
WIRE -320 1296 -352 1296
WIRE 1168 1296 1168 1264
WIRE 1200 1296 1200 1280
WIRE 1200 1296 1168 1296
WIRE -352 1312 -352 1296
WIRE -320 1312 -352 1312
WIRE 1200 1312 1200 1296
WIRE -352 1328 -352 1312
WIRE -304 1328 -304 1312
WIRE -304 1328 -352 1328
WIRE 624 1344 560 1344
WIRE 1072 1344 1072 1280
WIRE 1072 1344 688 1344
WIRE 608 1376 608 1248
WIRE 608 1376 560 1376
WIRE 624 1376 608 1376
WIRE 2208 1376 2208 1328
WIRE 2384 1376 2384 1312
WIRE 2464 1376 2464 1232
FLAG 1296 288 0
FLAG 320 256 0
FLAG 48 336 0
FLAG -256 416 0
FLAG 1200 1168 0
FLAG 1200 1312 0
FLAG 1456 288 0
FLAG -176 -144 UMBILICAL
FLAG 128 -64 BATT_1
FLAG 368 16 BATT_2
FLAG 1088 560 0
FLAG 880 848 0
FLAG 1472 160 Umbilical_comparator
FLAG 1264 432 BATT_1_comparator
FLAG 1056 720 BATT_2_comparator
FLAG 768 1072 Umbilical_comparator
FLAG 736 1216 BATT_1_comparator
FLAG 560 1344 BATT_2_comparator
FLAG 688 304 LDO_POWER
FLAG 16 880 0
FLAG 240 720 0
FLAG -224 864 0
FLAG -192 608 LDO_POWER
FLAG 336 608 LOGIC_POWER
FLAG 560 1376 LOGIC_POWER
FLAG 1248 560 0
FLAG 1040 848 0
FLAG -1120 -2144 Umbilical_gate_control_logic_output
FLAG -1120 -2064 BATT_1_gate_control_logic_output
FLAG -1120 -1984 BATT_2_gate_control_signal_logic_output
FLAG 320 -1584 UMBILICAL
FLAG -512 -2144 Umbilical_gate_control_signal
FLAG -512 -2064 BATT_1_gate_control_signal
FLAG -512 -1984 BATT_2_gate_control_signal
FLAG 912 976 Umbilical_gate_control_logic_output
FLAG 1280 944 BATT_1_gate_control_logic_output
FLAG 1616 976 BATT_2_gate_control_signal_logic_output
FLAG 320 -1424 BATT_1
FLAG 320 -1264 BATT_2
FLAG 1504 -1040 0
FLAG 1600 -1200 RESET_GATE
FLAG 1104 -1984 LOGIC_POWER
FLAG -928 -1584 0
FLAG 1104 -1696 SIGNAL_MOSFET
FLAG -1088 -1760 SIGNAL_MOSFET
FLAG 496 -1648 Umbilical_gate_control_logic_output
FLAG 496 -1488 BATT_1_gate_control_logic_output
FLAG 496 -1328 BATT_2_gate_control_signal_logic_output
FLAG 816 -1696 0
FLAG -464 -1728 RESET_GATE
FLAG -128 -1776 0
FLAG -16 -1728 RESET_CLK
FLAG 1504 -1360 0
FLAG 1600 -1520 RESET_CLK
FLAG 2688 416 0
FLAG 2128 512 BATT_1_gate_control_signal
FLAG 2144 80 BATT_1
FLAG 2464 1376 0
FLAG 2688 1120 0
FLAG 2208 1376 0
FLAG 2384 1376 0
FLAG 2144 784 BATT_2
FLAG 2128 1216 BATT_2_gate_control_signal
FLAG 2464 -48 0
FLAG 2688 -304 0
FLAG 2208 -48 0
FLAG 2384 -48 0
FLAG 2144 -640 UMBILICAL
FLAG 2128 -208 Umbilical_gate_control_signal
FLAG 2464 672 0
FLAG 2384 672 0
FLAG 2208 672 0
FLAG 3136 1104 0
FLAG 3392 1104 0
FLAG 528 -1888 Deny_Signal
FLAG 3392 784 OUTPUT_RAIL
FLAG 320 -1552 OUTPUT_RAIL
FLAG 320 -1392 OUTPUT_RAIL
FLAG 320 -1232 OUTPUT_RAIL
FLAG 1088 -1040 0
FLAG 2800 960 BATT_2_GATE
FLAG 2800 256 BATT_1_GATE
FLAG 2800 -464 UMB_GATE
FLAG 432 -1936 0
FLAG 384 -1728 0
FLAG 304 -1728 0
FLAG -304 1328 0
FLAG 656 -1584 0
FLAG 656 -1424 0
FLAG 656 -1264 0
FLAG 896 -1456 0
FLAG 160 -1712 0
SYMBOL voltage -256 320 R0
WINDOW 123 0 0 Left 0
WINDOW 39 0 0 Left 0
WINDOW 3 24 96 Left 1
SYMATTR Value PULSE(0 48 0 10m 4m 200m 5 1)
SYMATTR InstName UMBILICAL
SYMBOL voltage 48 240 R0
WINDOW 123 0 0 Left 0
WINDOW 39 0 0 Left 0
WINDOW 3 24 96 Left 1
SYMATTR Value PULSE(0 16.8 0 10m 10m 500m 5 1)
SYMATTR InstName BATT_1
SYMBOL voltage 320 160 R0
WINDOW 123 0 0 Left 0
WINDOW 39 0 0 Left 0
WINDOW 3 24 96 Left 1
SYMATTR Value PULSE(0 16.8 0 10m 100m 10 11 1)
SYMATTR InstName BATT_2
SYMBOL res 1280 32 R0
SYMATTR InstName R1
SYMATTR Value 10000
SYMBOL res 1280 176 R0
SYMATTR InstName R2
SYMATTR Value 1250
SYMBOL cap 1472 208 M0
WINDOW 3 -50 49 Left 2
WINDOW 0 -21 10 Left 2
SYMATTR Value 100n
SYMATTR InstName C2
SYMBOL Digital\\diffschmitt 624 1296 R0
WINDOW 3 201 104 Right 0
SYMATTR Value Trise=1u, Vhigh = 5, Vt = 0.1, Vh = 0.05
SYMATTR InstName A7
SYMBOL Digital\\diffschmitt 800 1168 R0
WINDOW 3 170 115 Right 0
SYMATTR Value Trise=1u, Vhigh = 5, Vt = 0.1, Vh = 0.05
SYMATTR InstName A8
SYMBOL Digital\\diffschmitt 816 1024 R0
WINDOW 3 248 102 Right 0
SYMATTR Value Trise=20u, Vhigh = 5, Vt = 0.05, Vh = 0.075, Td = 5u
SYMATTR InstName A9
SYMBOL res 1328 144 M90
WINDOW 0 0 56 VBottom 2
WINDOW 3 32 56 VTop 2
SYMATTR InstName R8
SYMATTR Value 1000
SYMBOL bv -256 176 R0
WINDOW 3 24 96 Left 1
SYMATTR Value V=white(2e4*time) / 13
SYMATTR InstName UMBILICAL_Noise
SYMBOL bv 48 112 R0
WINDOW 3 24 96 Left 1
SYMATTR Value V=white(2e4*time) / 13
SYMATTR InstName BATT_1_Noise
SYMBOL bv 320 32 R0
WINDOW 3 24 96 Left 1
SYMATTR Value V=white(2e4*time) / 13
SYMATTR InstName BATT_2_Noise
SYMBOL res 1072 304 R0
SYMATTR InstName R3
SYMATTR Value 10000
SYMBOL res 1072 448 R0
SYMATTR InstName R4
SYMATTR Value 4500
SYMBOL res 864 592 R0
SYMATTR InstName R6
SYMATTR Value 10000
SYMBOL res 864 736 R0
SYMATTR InstName R12
SYMATTR Value 4500
SYMBOL cap -128 784 R90
WINDOW 0 0 32 VBottom 2
WINDOW 3 32 32 VTop 2
SYMATTR InstName C7
SYMATTR Value 1n
SYMBOL cap 224 624 R0
SYMATTR InstName C8
SYMATTR Value 4.7µ
SYMATTR SpiceLine Rser=1.5m
SYMBOL ADM7170-5.0 16 704 R0
SYMATTR InstName U1
SYMBOL cap 1264 480 M0
WINDOW 3 -50 49 Left 2
WINDOW 0 -36 11 Left 2
SYMATTR Value 100n
SYMATTR InstName C11
SYMBOL res 1120 416 M90
WINDOW 0 0 56 VBottom 2
WINDOW 3 32 56 VTop 2
SYMATTR InstName R32
SYMATTR Value 1000
SYMBOL cap 1056 768 M0
WINDOW 3 -50 49 Left 2
WINDOW 0 -36 13 Left 2
SYMATTR Value 100n
SYMATTR InstName C12
SYMBOL res 912 704 M90
WINDOW 0 0 56 VBottom 2
WINDOW 3 32 56 VTop 2
SYMATTR InstName R33
SYMATTR Value 1000
SYMBOL schottky 752 192 R0
SYMATTR InstName D1
SYMBOL schottky 672 192 R0
SYMATTR InstName D2
SYMBOL schottky 592 192 R0
SYMATTR InstName D4
SYMBOL Digital\\diffschmitt 400 -1632 R0
WINDOW 3 1 111 Right 1
SYMATTR Value Trise=1u, Vhigh = 5, Vt = 0.05, Vh = 0.075, Td = 10n
SYMATTR InstName A12
SYMBOL Digital\\diffschmitt 400 -1472 R0
WINDOW 3 1 111 Right 1
SYMATTR Value Trise=1u, Vhigh = 5, Vt = 0.05, Vh = 0.075, Td = 10n
SYMATTR InstName A14
SYMBOL Digital\\diffschmitt 400 -1312 R0
WINDOW 3 1 111 Right 1
SYMATTR Value Trise=1u, Vhigh = 5, Vt = 0.05, Vh = 0.075, Td = 10n
SYMATTR InstName A16
SYMBOL pmos -976 -1936 M270
SYMATTR InstName M7
SYMATTR Value Si1555DL_P
SYMBOL pmos -848 -2016 M270
SYMATTR InstName M1
SYMATTR Value Si1555DL_P
SYMBOL pmos -720 -2096 M270
SYMATTR InstName M6
SYMATTR Value Si1555DL_P
SYMBOL cap 1488 -1120 R0
SYMATTR InstName C10
SYMATTR Value 9n
SYMBOL res 1424 -1216 R90
WINDOW 0 0 56 VBottom 2
WINDOW 3 32 56 VTop 2
SYMATTR InstName R36
SYMATTR Value 5000
SYMBOL res 1360 -1312 R90
WINDOW 0 0 56 VBottom 2
WINDOW 3 32 56 VTop 2
SYMATTR InstName R16
SYMATTR Value 1000
SYMBOL res 1008 -1856 R90
WINDOW 0 0 56 VBottom 2
WINDOW 3 32 56 VTop 2
SYMATTR InstName R38
SYMATTR Value 330
SYMBOL res -1072 -1920 R0
SYMATTR InstName R34
SYMATTR Value 330
SYMBOL res -944 -1920 R0
SYMATTR InstName R35
SYMATTR Value 330
SYMBOL res -816 -1920 R0
SYMATTR InstName R37
SYMATTR Value 330
SYMBOL res -944 -1712 R0
SYMATTR InstName R48
SYMATTR Value 10000
SYMBOL pmos 1040 -1760 M180
SYMATTR InstName M11
SYMATTR Value Si1555DL_P
SYMBOL res 800 -1824 R0
SYMATTR InstName R5
SYMATTR Value 33000
SYMBOL Digital\\dflop 384 -1888 R0
WINDOW 3 -119 -20 Left 2
SYMATTR Value Vhigh = 5
SYMATTR InstName A11
SYMBOL diode 1456 -1312 R90
WINDOW 0 0 32 VBottom 2
WINDOW 3 32 32 VTop 2
SYMATTR InstName D5
SYMBOL cap 1488 -1440 R0
SYMATTR InstName C15
SYMATTR Value 17n
SYMBOL res 1424 -1536 R90
WINDOW 0 0 56 VBottom 2
WINDOW 3 32 56 VTop 2
SYMATTR InstName R39
SYMATTR Value 5000
SYMBOL res 1360 -1632 R90
WINDOW 0 0 56 VBottom 2
WINDOW 3 32 56 VTop 2
SYMATTR InstName R40
SYMATTR Value 1000
SYMBOL diode 1456 -1632 R90
WINDOW 0 0 32 VBottom 2
WINDOW 3 32 32 VTop 2
SYMATTR InstName D6
SYMBOL pmos 2336 128 R270
WINDOW 3 56 72 Left 0
SYMATTR Value Si7469DP
SYMATTR InstName M14
SYMBOL pmos 2816 128 M270
WINDOW 3 56 72 Left 0
SYMATTR Value Si7469DP
SYMATTR InstName M15
SYMBOL res 2448 128 R0
SYMATTR InstName R42
SYMATTR Value 5000
SYMBOL cap 2560 160 R0
SYMATTR InstName C19
SYMATTR Value 10p
SYMBOL zener 2704 192 R180
WINDOW 0 24 64 Left 2
WINDOW 3 24 0 Left 1
SYMATTR InstName D7
SYMATTR Value EDZV13B
SYMBOL res 2448 288 R0
SYMATTR InstName R43
SYMATTR Value 650
SYMBOL nmos 2416 432 R0
SYMATTR InstName M16
SYMATTR Value BSC047N08NS3
SYMBOL res 2672 288 R0
SYMATTR InstName R44
SYMATTR Value 10e5
SYMBOL res 2368 496 R90
WINDOW 0 0 56 VBottom 2
WINDOW 3 32 56 VTop 2
SYMATTR InstName R45
SYMATTR Value 220
SYMBOL res 2192 528 R0
SYMATTR InstName R46
SYMATTR Value 10000
SYMBOL cap 2368 544 R0
SYMATTR InstName C20
SYMATTR Value 10p
SYMBOL pmos 2336 832 R270
WINDOW 3 56 72 Left 0
SYMATTR Value Si7469DP
SYMATTR InstName M10
SYMBOL pmos 2816 832 M270
WINDOW 3 56 72 Left 0
SYMATTR Value Si7469DP
SYMATTR InstName M12
SYMBOL res 2448 832 R0
SYMATTR InstName R19
SYMATTR Value 5000
SYMBOL cap 2560 864 R0
SYMATTR InstName C18
SYMATTR Value 10p
SYMBOL zener 2704 896 R180
WINDOW 0 24 64 Left 2
WINDOW 3 24 0 Left 1
SYMATTR InstName D3
SYMATTR Value EDZV13B
SYMBOL res 2448 992 R0
SYMATTR InstName R20
SYMATTR Value 650
SYMBOL nmos 2416 1136 R0
SYMATTR InstName M13
SYMATTR Value BSC047N08NS3
SYMBOL res 2672 992 R0
SYMATTR InstName R41
SYMATTR Value 10e5
SYMBOL res 2368 1200 R90
WINDOW 0 0 56 VBottom 2
WINDOW 3 32 56 VTop 2
SYMATTR InstName R47
SYMATTR Value 110
SYMBOL res 2192 1232 R0
SYMATTR InstName R49
SYMATTR Value 10000
SYMBOL cap 2368 1248 R0
SYMATTR InstName C21
SYMATTR Value 10p
SYMBOL pmos 2336 -592 R270
WINDOW 3 56 72 Left 0
SYMATTR Value Si7469DP
SYMATTR InstName M17
SYMBOL pmos 2816 -592 M270
WINDOW 3 56 72 Left 0
SYMATTR Value Si7469DP
SYMATTR InstName M18
SYMBOL res 2448 -592 R0
SYMATTR InstName R50
SYMATTR Value 10000
SYMBOL cap 2560 -560 R0
SYMATTR InstName C22
SYMATTR Value 10p
SYMBOL nmos 2416 -288 R0
SYMATTR InstName M19
SYMATTR Value BSC047N08NS3
SYMBOL res 2672 -432 R0
SYMATTR InstName R51
SYMATTR Value 10e5
SYMBOL res 2368 -224 R90
WINDOW 0 0 56 VBottom 2
WINDOW 3 32 56 VTop 2
SYMATTR InstName R52
SYMATTR Value 220
SYMBOL res 2192 -192 R0
SYMATTR InstName R53
SYMATTR Value 10000
SYMBOL cap 2368 -176 R0
SYMATTR InstName C23
SYMATTR Value 10p
SYMBOL zener 2704 -528 R180
WINDOW 0 24 64 Left 2
WINDOW 3 24 0 Left 1
SYMATTR InstName D9
SYMATTR Value EDZV22B
SYMBOL res 2448 -432 R0
SYMATTR InstName R54
SYMATTR Value 10000
SYMBOL res 3408 944 R180
WINDOW 0 36 76 Left 2
WINDOW 3 36 40 Left 2
SYMATTR InstName R55
SYMATTR Value 5
SYMBOL cap 3120 976 R0
SYMATTR InstName C1
SYMATTR Value 1µ
SYMBOL res 1072 -1168 R0
SYMATTR InstName R7
SYMATTR Value 33000
SYMBOL res 3120 816 R0
SYMATTR InstName R11
SYMATTR Value 10
SYMBOL res 2304 768 R90
WINDOW 0 0 56 VBottom 2
WINDOW 3 32 56 VTop 2
SYMATTR InstName BATT2
SYMATTR Value 0.01
SYMBOL res 2320 64 R90
WINDOW 0 0 56 VBottom 2
WINDOW 3 32 56 VTop 2
SYMATTR InstName BATT1
SYMATTR Value 0.01
SYMBOL res 2304 -656 R90
WINDOW 0 0 56 VBottom 2
WINDOW 3 32 56 VTop 2
SYMATTR InstName UMB
SYMATTR Value 0.01
SYMBOL ind 832 -160 R90
WINDOW 0 5 56 VBottom 2
WINDOW 3 32 56 VTop 2
SYMATTR InstName L1
SYMATTR Value 20n
SYMBOL ind 848 -80 R90
WINDOW 0 5 56 VBottom 2
WINDOW 3 32 56 VTop 2
SYMATTR InstName L2
SYMATTR Value 20n
SYMBOL ind 1056 0 R90
WINDOW 0 5 56 VBottom 2
WINDOW 3 32 56 VTop 2
SYMATTR InstName L3
SYMATTR Value 20n
SYMBOL res 1056 -1536 R90
WINDOW 0 0 56 VBottom 2
WINDOW 3 32 56 VTop 2
SYMATTR InstName R9
SYMATTR Value 0.001
SYMBOL res 1072 -1968 R0
SYMATTR InstName R10
SYMATTR Value 0.001
SYMBOL Digital\\and -288 1216 R0
WINDOW 3 -71 -7 Left 0
SYMATTR Value Vhigh = 4.9, Vlow = 0.1,Td = 5n, Trise = 10n, Tfall = 10n
SYMATTR InstName A5
SYMBOL Digital\\schmtbuf -400 1184 R0
WINDOW 3 74 39 Left 0
SYMATTR Value Vhigh = 4.9, Vlow = 0.1, Vt = 2.5, Vh =1
SYMATTR InstName A13
SYMBOL Digital\\schmtbuf 1120 1008 R0
WINDOW 0 3 33 Left 1
WINDOW 3 3 22 Left 0
SYMATTR InstName A15
SYMATTR Value Vhigh = 4.9, Vlow = 0.1, Vt = 2.5, Vh =1
SYMBOL Digital\\schmtbuf 1104 1072 R0
WINDOW 0 3 33 Left 1
WINDOW 3 3 22 Left 0
SYMATTR InstName A21
SYMATTR Value Vhigh = 4.9, Vlow = 0.1, Vt = 2.5, Vh =1
SYMBOL Digital\\schmtbuf 1088 1152 R0
WINDOW 0 33 52 Left 0
WINDOW 3 -211 88 Left 0
SYMATTR InstName A1
SYMATTR Value Vhigh = 4.9, Vlow = 0.1, Vt = 2.5, Vh =1
SYMBOL Digital\\schmtbuf 1072 1184 R0
WINDOW 0 32 53 Left 0
WINDOW 3 -193 45 Left 0
SYMATTR InstName A23
SYMATTR Value Vhigh = 4.9, Vlow = 0.1, Vt = 2.5, Vh =1
SYMBOL Digital\\schmtbuf 1088 1216 R0
WINDOW 0 27 50 Left 0
WINDOW 3 -211 42 Left 0
SYMATTR InstName A24
SYMATTR Value Vhigh = 4.9, Vlow = 0.1, Vt = 2.5, Vh =1
SYMBOL Digital\\schmtbuf 544 -1760 R0
WINDOW 0 33 52 Left 0
WINDOW 3 14 42 Left 0
SYMATTR InstName A27
SYMATTR Value Vhigh = 4.9, Vlow = 0.1, Vt = 2.5, Vh =1
SYMBOL Digital\\schmtbuf 544 -1712 R0
WINDOW 0 33 52 Left 0
WINDOW 3 14 42 Left 0
SYMATTR InstName A19
SYMATTR Value Vhigh = 4.9, Vlow = 0.1, Vt = 2.5, Vh =1
SYMBOL Digital\\schmtbuf 544 -1664 R0
WINDOW 0 33 52 Left 0
WINDOW 3 14 42 Left 0
SYMATTR InstName A25
SYMATTR Value Vhigh = 4.9, Vlow = 0.1, Vt = 2.5, Vh =1
SYMBOL Digital\\schmtbuf 544 -1600 R0
WINDOW 0 33 52 Left 0
WINDOW 3 14 42 Left 0
SYMATTR InstName A26
SYMATTR Value Vhigh = 4.9, Vlow = 0.1, Vt = 2.5, Vh =1
SYMBOL Digital\\schmtbuf 544 -1552 R0
WINDOW 0 33 52 Left 0
WINDOW 3 14 42 Left 0
SYMATTR InstName A29
SYMATTR Value Vhigh = 4.9, Vlow = 0.1, Vt = 2.5, Vh =1
SYMBOL Digital\\schmtbuf 544 -1504 R0
WINDOW 0 33 52 Left 0
WINDOW 3 14 42 Left 0
SYMATTR InstName A30
SYMATTR Value Vhigh = 4.9, Vlow = 0.1, Vt = 2.5, Vh =1
SYMBOL Digital\\schmtbuf 544 -1440 R0
WINDOW 0 33 52 Left 0
WINDOW 3 14 42 Left 0
SYMATTR InstName A31
SYMATTR Value Vhigh = 4.9, Vlow = 0.1, Vt = 2.5, Vh =1
SYMBOL Digital\\schmtbuf 544 -1392 R0
WINDOW 0 33 52 Left 0
WINDOW 3 14 42 Left 0
SYMATTR InstName A33
SYMATTR Value Vhigh = 4.9, Vlow = 0.1, Vt = 2.5, Vh =1
SYMBOL Digital\\schmtbuf 544 -1344 R0
WINDOW 0 33 52 Left 0
WINDOW 3 14 42 Left 0
SYMATTR InstName A34
SYMATTR Value Vhigh = 4.9, Vlow = 0.1, Vt = 2.5, Vh =1
SYMBOL Digital\\schmtbuf -288 -1936 R0
WINDOW 0 33 52 Left 0
WINDOW 3 14 42 Left 0
SYMATTR InstName A36
SYMATTR Value Vhigh = 4.9, Vlow = 0.1, Vt = 2.5, Vh =1
SYMBOL Digital\\schmtbuf -288 -1888 R0
WINDOW 0 33 52 Left 0
WINDOW 3 14 42 Left 0
SYMATTR InstName A37
SYMATTR Value Vhigh = 4.9, Vlow = 0.1, Vt = 2.5, Vh =1
SYMBOL Digital\\schmtbuf -288 -1840 R0
WINDOW 0 33 52 Left 0
WINDOW 3 14 42 Left 0
SYMATTR InstName A38
SYMATTR Value Vhigh = 4.9, Vlow = 0.1, Vt = 2.5, Vh =1
SYMBOL Digital\\schmtbuf -288 -1792 R0
WINDOW 0 33 52 Left 0
WINDOW 3 14 42 Left 0
SYMATTR InstName A39
SYMATTR Value Vhigh = 4.9, Vlow = 0.1, Vt = 2.5, Vh =1
SYMBOL Digital\\and 1216 1040 R0
WINDOW 3 10 99 Left 0
SYMATTR Value Vhigh = 4.9, Vlow = 0.1,Td = 5n, Trise = 2.5n, Tfall = 2.5n
SYMATTR InstName A40
SYMBOL Digital\\schmtinv -416 -1936 R0
WINDOW 0 8 32 Left 1
WINDOW 3 13 299 Left 0
SYMATTR InstName A22
SYMATTR Value td = 5n, Vhigh  = 4.9, Vlow = 0.1, Vt = 2.81, Vh = 0.555, Trise = 2.5n
SYMBOL Digital\\schmtinv -416 -1888 R0
WINDOW 0 8 32 Left 1
WINDOW 3 13 299 Left 0
SYMATTR InstName A3
SYMATTR Value td = 5n, Vhigh  = 4.9, Vlow = 0.1, Vt = 2.81, Vh = 0.555, Trise = 2.5n
SYMBOL Digital\\schmtinv -416 -1840 R0
WINDOW 0 8 32 Left 1
WINDOW 3 13 299 Left 0
SYMATTR InstName A6
SYMATTR Value td = 5n, Vhigh  = 4.9, Vlow = 0.1, Vt = 2.81, Vh = 0.555, Trise = 2.5n
SYMBOL Digital\\schmtinv -416 -1792 R0
WINDOW 0 8 32 Left 1
WINDOW 3 13 299 Left 0
SYMATTR InstName A17
SYMATTR Value td = 5n, Vhigh  = 4.9, Vlow = 0.1, Vt = 2.81, Vh = 0.555, Trise = 2.5n
SYMBOL Digital\\and 1216 1184 R0
WINDOW 3 10 99 Left 0
SYMATTR Value Vhigh = 4.9, Vlow = 0.1,Td = 5n, Trise = 2.5n, Tfall = 2.5n
SYMATTR InstName A2
SYMBOL Digital\\and 672 -1712 R0
WINDOW 3 10 99 Left 0
SYMATTR Value Vhigh = 4.9, Vlow = 0.1,Td = 5n, Trise = 2.5n, Tfall = 2.5n
SYMATTR InstName A41
SYMBOL Digital\\and -112 -1888 R0
WINDOW 3 -35 13 Left 0
SYMATTR Value Vhigh = 4.9, Vlow = 0.1,Td = 5n, Trise = 2.5n, Tfall = 2.5n
SYMATTR InstName A4
SYMBOL Digital\\and 672 -1552 R0
WINDOW 3 10 99 Left 0
SYMATTR Value Vhigh = 4.9, Vlow = 0.1,Td = 5n, Trise = 2.5n, Tfall = 2.5n
SYMATTR InstName A28
SYMBOL Digital\\and 672 -1392 R0
WINDOW 3 10 99 Left 0
SYMATTR Value Vhigh = 4.9, Vlow = 0.1,Td = 5n, Trise = 2.5n, Tfall = 2.5n
SYMATTR InstName A32
SYMBOL Digital\\or 912 -1568 R0
WINDOW 0 -2 23 Left 2
WINDOW 3 -68 4 Left 0
SYMATTR InstName A10
SYMATTR Value Vhigh = 5, Vlow = 0.1V, Td = 3.5n, Trise = 2.5n, Tfall = 2.5n
SYMBOL Digital\\schmtbuf 768 -1488 R0
WINDOW 0 33 52 Left 0
WINDOW 3 14 42 Left 0
SYMATTR InstName A35
SYMATTR Value Vhigh = 4.9, Vlow = 0.1, Vt = 2.5, Vh =1
SYMBOL Digital\\schmtbuf 768 -1648 R0
WINDOW 0 33 52 Left 0
WINDOW 3 14 42 Left 0
SYMATTR InstName A42
SYMATTR Value Vhigh = 4.9, Vlow = 0.1, Vt = 2.5, Vh =1
SYMBOL Digital\\schmtbuf 768 -1568 R0
WINDOW 0 33 52 Left 0
WINDOW 3 -40 39 Left 0
SYMATTR InstName A18
SYMATTR Value Vhigh = 4.9, Vlow = 0.1, Vt = 2.5, Vh =1
SYMBOL Digital\\schmtbuf 32 -1792 R0
WINDOW 0 33 52 Left 0
WINDOW 3 14 42 Left 0
SYMATTR InstName A43
SYMATTR Value Vhigh = 4.9, Vlow = 0.1, Vt = 2.5, Vh =1
SYMBOL Digital\\schmtbuf 32 -1856 R0
WINDOW 0 33 52 Left 0
WINDOW 3 14 42 Left 0
SYMATTR InstName A44
SYMATTR Value Vhigh = 4.9, Vlow = 0.1, Vt = 2.5, Vh =1
SYMBOL Digital\\or 176 -1824 R0
WINDOW 0 -2 23 Left 2
WINDOW 3 -68 4 Left 0
SYMATTR InstName A20
SYMATTR Value Vhigh = 5, Vlow = 0.1V, Td = 3.5n, Trise = 2.5n, Tfall = 2.5n
TEXT -256 -200 Left 2 !.tran 800m
TEXT 640 1480 Left 2 ;Need to switch all the output signals to not invert the signal
TEXT 1432 104 Left 2 ;common switch debouncing values
TEXT 8 -272 Left 2 ;ORing diodes or or gate, this needs to supply some current to turn on the transmission gate so idk?
TEXT -808 -2368 Left 2 ;Maybe use transmission gates here or something (single rail transmission gates)
TEXT -608 -2240 Left 2 ;If the propogation delay is high, then the and gate wont read a fast switch over event, maybe add some sort of delay so down time is more easier to detect.
TEXT 1104 1384 Left 2 ;Any decoupling capacitors here?
TEXT -32 1016 Left 2 ;Voltage divider so when the umbilical falls below 30V this switches off
