Version 4.1
SHEET 1 2964 1760
WIRE -176 -144 -256 -144
WIRE 1008 -144 -176 -144
WIRE 1040 -144 1008 -144
WIRE 128 -64 48 -64
WIRE 800 -64 128 -64
WIRE 1040 -64 800 -64
WIRE 368 16 320 16
WIRE 592 16 368 16
WIRE 1040 16 592 16
WIRE 320 48 320 16
WIRE 1008 48 1008 -144
WIRE 48 128 48 -64
WIRE 896 160 864 160
WIRE 1008 160 1008 128
WIRE 1008 160 976 160
WIRE 320 176 320 128
WIRE -256 192 -256 -144
WIRE 1008 192 1008 160
WIRE 1536 192 1488 192
WIRE 1584 192 1536 192
WIRE 1872 192 1824 192
WIRE 1920 192 1872 192
WIRE 2160 192 2096 192
WIRE 2192 192 2160 192
WIRE 864 208 864 160
WIRE 1488 208 1488 192
WIRE 1824 208 1824 192
WIRE 2096 208 2096 192
WIRE 48 256 48 208
WIRE 1584 272 1584 192
WIRE 1920 272 1920 192
WIRE 2192 272 2192 192
WIRE 864 288 864 272
WIRE 1008 288 1008 272
WIRE 1488 288 1488 272
WIRE 1824 288 1824 272
WIRE 2096 288 2096 272
WIRE 800 320 800 -64
WIRE -256 336 -256 272
WIRE 1488 400 1440 400
WIRE 1728 416 1616 416
WIRE 1808 416 1792 416
WIRE 1856 416 1808 416
WIRE 688 432 656 432
WIRE 800 432 800 400
WIRE 800 432 768 432
WIRE 1488 432 1456 432
WIRE 1584 432 1584 352
WIRE 1584 432 1552 432
WIRE 1616 432 1616 416
WIRE 1616 432 1584 432
WIRE 1920 432 1920 352
WIRE 800 464 800 432
WIRE 656 480 656 432
WIRE 1856 480 1616 480
WIRE 1872 496 1872 480
WIRE 1472 544 1408 544
WIRE 1808 544 1808 416
WIRE 1856 544 1808 544
WIRE 656 560 656 544
WIRE 800 560 800 544
WIRE 1984 560 1920 560
WIRE 1456 576 1456 432
WIRE 1456 576 1280 576
WIRE 1472 576 1456 576
WIRE 1616 576 1616 480
WIRE 1616 576 1536 576
WIRE 1664 576 1616 576
WIRE 2192 576 2192 352
WIRE 2192 576 2048 576
WIRE 592 608 592 16
WIRE 1664 608 1664 576
WIRE 1696 608 1664 608
WIRE 1856 608 1760 608
WIRE 1872 640 1872 608
WIRE 2000 656 2000 624
WIRE 2016 656 2000 656
WIRE 1296 672 1232 672
WIRE 2016 672 2016 656
WIRE 1280 704 1280 576
WIRE 1280 704 1104 704
WIRE 1296 704 1280 704
WIRE 1984 704 1984 624
WIRE 1984 704 1360 704
WIRE 480 720 448 720
WIRE 592 720 592 688
WIRE 592 720 560 720
WIRE 1104 736 1104 704
WIRE 592 752 592 720
WIRE 448 768 448 720
WIRE 1104 832 1104 816
WIRE 448 848 448 832
WIRE 592 848 592 832
FLAG 1008 288 0
FLAG 1104 912 0
FLAG 320 256 0
FLAG 48 336 0
FLAG -256 416 0
FLAG 1872 496 0
FLAG 1872 640 0
FLAG 1488 288 0
FLAG 864 288 0
FLAG 2016 672 0
FLAG 1824 288 0
FLAG 2096 288 0
FLAG -176 -144 UMBILICAL
FLAG 128 -64 BATT_1
FLAG 368 16 BATT_2
FLAG 800 560 0
FLAG 656 560 0
FLAG 592 848 0
FLAG 448 848 0
FLAG 1008 160 Umbilical_comparator
FLAG 800 432 BATT_1_comparator
FLAG 592 720 BATT_2_comparator
FLAG 1440 400 Umbilical_comparator
FLAG 1408 544 BATT_1_comparator
FLAG 1232 672 BATT_2_comparator
FLAG 1536 192 Umbilical_gate_signal
FLAG 1872 192 BATT_1_gate_signal
FLAG 2160 192 BATT_2_gate_signal
SYMBOL voltage -256 320 R0
WINDOW 123 0 0 Left 0
WINDOW 39 0 0 Left 0
WINDOW 3 24 96 Left 1
SYMATTR InstName UMBILICAL
SYMATTR Value PULSE(0 48 0 400m 20m 100m 5 1)
SYMBOL voltage 48 240 R0
WINDOW 123 0 0 Left 0
WINDOW 39 0 0 Left 0
WINDOW 3 24 96 Left 1
SYMATTR InstName BATT_1
SYMATTR Value PULSE(0 16.8 0 100m 500u 500m 5 1)
SYMBOL voltage 320 160 R0
WINDOW 123 0 0 Left 0
WINDOW 39 0 0 Left 0
WINDOW 3 24 96 Left 1
SYMATTR InstName BATT_2
SYMATTR Value PULSE(0 16.8 0 20u 0.1 10 11 1)
SYMBOL res 992 32 R0
SYMATTR InstName R1
SYMATTR Value 10000
SYMBOL res 992 176 R0
SYMATTR InstName R2
SYMATTR Value 20000
SYMBOL voltage 1104 816 R0
WINDOW 123 0 0 Left 0
WINDOW 39 0 0 Left 0
SYMATTR InstName COMPARATOR_SOURCE
SYMATTR Value 5
SYMBOL Digital\\inv 1728 352 R0
WINDOW 3 44 47 Left 1
SYMATTR InstName A1
SYMATTR Value Vhigh = 5
SYMBOL Digital\\or 1888 384 R0
WINDOW 3 30 62 Left 1
SYMATTR InstName A2
SYMATTR Value Vhigh = 5
SYMBOL Digital\\or 1888 512 R0
WINDOW 3 10 34 Left 1
SYMATTR InstName A4
SYMATTR Value Vhigh = 5
SYMBOL Digital\\inv 1696 544 R0
WINDOW 3 -2 91 Left 1
SYMATTR InstName A5
SYMATTR Value Vhigh = 5
SYMBOL Digital\\or 2016 528 R0
WINDOW 3 31 62 Left 1
SYMATTR InstName A3
SYMATTR Value Vhigh = 5
SYMBOL res 1088 720 R0
SYMATTR InstName R9
SYMATTR Value 0.1
SYMBOL res 1568 256 R0
SYMATTR InstName R10
SYMATTR Value 10000
SYMBOL cap 1472 208 R0
SYMATTR InstName C1
SYMATTR Value 500nf
SYMBOL cap 848 208 R0
WINDOW 3 26 47 Left 2
SYMATTR InstName C2
SYMATTR Value 500n
SYMBOL Digital\\diffschmitt 1296 624 R0
WINDOW 3 303 112 Right 1
SYMATTR Value Trise=1u, Vhigh = 5, Vt = 0.1, Vh = 0.05
SYMATTR InstName A7
SYMBOL Digital\\diffschmitt 1472 496 R0
WINDOW 3 170 115 Right 1
SYMATTR Value Trise=1u, Vhigh = 5, Vt = 0.1, Vh = 0.05
SYMATTR InstName A8
SYMBOL Digital\\diffschmitt 1488 352 R0
WINDOW 3 293 109 Right 1
SYMATTR Value Trise=1u, Vhigh = 5, Vt = 0.1, Vh = 0.05
SYMATTR InstName A9
SYMBOL res 992 144 R90
WINDOW 0 0 56 VBottom 2
WINDOW 3 32 56 VTop 2
SYMATTR InstName R8
SYMATTR Value 10000
SYMBOL res 1904 256 R0
SYMATTR InstName R7
SYMATTR Value 2000
SYMBOL cap 1808 208 R0
SYMATTR InstName C5
SYMATTR Value 500nf
SYMBOL res 2176 256 R0
SYMATTR InstName R11
SYMATTR Value 2000
SYMBOL cap 2080 208 R0
SYMATTR InstName C6
SYMATTR Value 500nf
SYMBOL bv -256 176 R0
WINDOW 3 24 96 Left 1
SYMATTR InstName UMBILICAL_Noise
SYMATTR Value V=white(2e4*time) / 13
SYMBOL bv 48 112 R0
WINDOW 3 24 96 Left 1
SYMATTR InstName BATT_1_Noise
SYMATTR Value V=white(2e4*time) / 13
SYMBOL bv 320 32 R0
WINDOW 3 24 96 Left 1
SYMATTR InstName BATT_2_Noise
SYMATTR Value V=white(2e4*time) / 13
SYMBOL res 784 304 R0
SYMATTR InstName R3
SYMATTR Value 10000
SYMBOL res 784 448 R0
SYMATTR InstName R4
SYMATTR Value 20000
SYMBOL cap 640 480 R0
WINDOW 3 26 47 Left 2
SYMATTR InstName C3
SYMATTR Value 500n
SYMBOL res 784 416 R90
WINDOW 0 0 56 VBottom 2
WINDOW 3 32 56 VTop 2
SYMATTR InstName R5
SYMATTR Value 10000
SYMBOL res 576 592 R0
SYMATTR InstName R6
SYMATTR Value 10000
SYMBOL res 576 736 R0
SYMATTR InstName R12
SYMATTR Value 20000
SYMBOL cap 432 768 R0
WINDOW 3 26 47 Left 2
SYMATTR InstName C4
SYMATTR Value 250n
SYMBOL res 576 704 R90
WINDOW 0 0 56 VBottom 2
WINDOW 3 32 56 VTop 2
SYMATTR InstName R13
SYMATTR Value 5000
TEXT -40 -336 Left 2 !.tran 1
