Version 4.1
SHEET 1 6740 1972
WIRE -480 -1488 -784 -1488
WIRE -384 -1488 -400 -1488
WIRE -208 -1488 -384 -1488
WIRE -176 -1488 -208 -1488
WIRE -608 -1408 -784 -1408
WIRE -512 -1408 -528 -1408
WIRE -224 -1408 -512 -1408
WIRE -176 -1408 -224 -1408
WIRE -736 -1328 -784 -1328
WIRE -640 -1328 -656 -1328
WIRE -240 -1328 -640 -1328
WIRE -176 -1328 -240 -1328
WIRE 1328 -1328 1312 -1328
WIRE 656 -1296 608 -1296
WIRE 1312 -1296 1312 -1328
WIRE 656 -1280 656 -1296
WIRE -720 -1248 -720 -1280
WIRE -592 -1248 -592 -1360
WIRE -464 -1248 -464 -1440
WIRE 608 -1232 608 -1296
WIRE 752 -1232 736 -1232
WIRE -208 -1216 -208 -1488
WIRE -80 -1216 -208 -1216
WIRE 48 -1216 -16 -1216
WIRE 112 -1200 112 -1216
WIRE 192 -1200 112 -1200
WIRE 1312 -1200 1312 -1216
WIRE 192 -1184 112 -1184
WIRE 368 -1184 256 -1184
WIRE 528 -1184 368 -1184
WIRE 736 -1184 736 -1232
WIRE 736 -1184 688 -1184
WIRE 1040 -1184 832 -1184
WIRE 1136 -1184 1040 -1184
WIRE 1264 -1184 1216 -1184
WIRE -224 -1168 -224 -1408
WIRE -80 -1168 -224 -1168
WIRE 48 -1168 -16 -1168
WIRE 112 -1168 112 -1184
WIRE 192 -1168 128 -1168
WIRE 192 -1152 144 -1152
WIRE 368 -1152 368 -1184
WIRE 432 -1152 368 -1152
WIRE 1040 -1152 1040 -1184
WIRE 432 -1136 400 -1136
WIRE 528 -1136 496 -1136
WIRE 832 -1136 832 -1184
WIRE 832 -1136 704 -1136
WIRE -240 -1120 -240 -1328
WIRE -80 -1120 -240 -1120
WIRE 48 -1120 -16 -1120
WIRE 128 -1120 128 -1168
WIRE 128 -1120 112 -1120
WIRE 192 -1120 192 -1136
WIRE 208 -1120 208 -1136
WIRE 208 -1120 192 -1120
WIRE 432 -1120 416 -1120
WIRE -720 -1104 -720 -1168
WIRE -720 -1104 -752 -1104
WIRE -592 -1104 -592 -1168
WIRE -592 -1104 -720 -1104
WIRE -464 -1104 -464 -1168
WIRE -464 -1104 -592 -1104
WIRE 416 -1104 416 -1120
WIRE 432 -1104 416 -1104
WIRE 416 -1088 416 -1104
WIRE 432 -1088 416 -1088
WIRE -80 -1072 -128 -1072
WIRE 48 -1072 -16 -1072
WIRE 144 -1072 144 -1152
WIRE 144 -1072 112 -1072
WIRE 416 -1072 416 -1088
WIRE 432 -1072 416 -1072
WIRE 448 -1072 448 -1088
WIRE 448 -1072 432 -1072
WIRE 528 -1072 528 -1088
WIRE 608 -1072 608 -1088
WIRE -592 -1040 -592 -1104
WIRE 736 -1040 736 -1184
WIRE 768 -1040 736 -1040
WIRE 1040 -1040 1040 -1072
WIRE 1312 -1040 1312 -1104
WIRE 1328 -1040 1312 -1040
WIRE 832 -1024 832 -1040
WIRE 864 -1024 832 -1024
WIRE 864 -1008 848 -1008
WIRE 960 -1008 928 -1008
WIRE 768 -992 720 -992
WIRE 864 -992 832 -992
WIRE 848 -976 848 -1008
WIRE 864 -976 848 -976
WIRE 1344 -960 1280 -960
WIRE 1472 -960 1424 -960
WIRE 1568 -960 1536 -960
WIRE 768 -944 704 -944
WIRE 864 -944 864 -960
WIRE 864 -944 832 -944
WIRE -592 -928 -592 -960
WIRE 624 -928 544 -928
WIRE 704 -928 704 -944
WIRE 704 -928 688 -928
WIRE 848 -928 848 -976
WIRE 880 -928 880 -960
WIRE 880 -928 848 -928
WIRE 624 -896 544 -896
WIRE 736 -880 736 -1040
WIRE 768 -880 736 -880
WIRE 960 -880 960 -1008
WIRE 832 -864 832 -880
WIRE 864 -864 832 -864
WIRE 960 -864 944 -864
WIRE 1040 -864 1024 -864
WIRE 1168 -864 1120 -864
WIRE 1280 -864 1280 -960
WIRE 1280 -864 1168 -864
WIRE 1408 -864 1280 -864
WIRE 1568 -864 1568 -960
WIRE 1568 -864 1488 -864
WIRE 1584 -864 1568 -864
WIRE 1680 -864 1584 -864
WIRE 864 -848 848 -848
WIRE 960 -848 928 -848
WIRE 768 -832 720 -832
WIRE 864 -832 832 -832
WIRE 944 -832 944 -864
WIRE 960 -832 944 -832
WIRE 848 -816 848 -848
WIRE 864 -816 848 -816
WIRE 944 -800 944 -832
WIRE 976 -800 976 -816
WIRE 976 -800 944 -800
WIRE 992 -800 976 -800
WIRE 768 -784 704 -784
WIRE 864 -784 864 -800
WIRE 864 -784 832 -784
WIRE 1584 -784 1584 -864
WIRE 624 -768 544 -768
WIRE 704 -768 704 -784
WIRE 704 -768 688 -768
WIRE 848 -768 848 -816
WIRE 880 -768 880 -800
WIRE 880 -768 848 -768
WIRE 992 -768 992 -800
WIRE 624 -736 544 -736
WIRE 736 -720 736 -880
WIRE 768 -720 736 -720
WIRE 832 -704 832 -720
WIRE 864 -704 832 -704
WIRE 1584 -704 1584 -720
WIRE 864 -688 848 -688
WIRE 960 -688 960 -816
WIRE 960 -688 928 -688
WIRE 768 -672 720 -672
WIRE 864 -672 832 -672
WIRE 848 -656 848 -688
WIRE 864 -656 848 -656
WIRE 1344 -640 1280 -640
WIRE 1472 -640 1424 -640
WIRE 1568 -640 1536 -640
WIRE 2208 -640 2144 -640
WIRE 2336 -640 2288 -640
WIRE 2464 -640 2432 -640
WIRE 2576 -640 2464 -640
WIRE 2688 -640 2576 -640
WIRE 2720 -640 2688 -640
WIRE 2976 -640 2816 -640
WIRE 768 -624 704 -624
WIRE 864 -624 864 -640
WIRE 864 -624 832 -624
WIRE 624 -608 544 -608
WIRE 704 -608 704 -624
WIRE 704 -608 688 -608
WIRE 848 -608 848 -656
WIRE 880 -608 880 -640
WIRE 880 -608 848 -608
WIRE 2688 -592 2688 -640
WIRE 624 -576 544 -576
WIRE 2464 -576 2464 -640
WIRE 2576 -560 2576 -640
WIRE 1168 -544 1168 -864
WIRE 1280 -544 1280 -640
WIRE 1280 -544 1168 -544
WIRE 1408 -544 1280 -544
WIRE 1568 -544 1568 -640
WIRE 1568 -544 1488 -544
WIRE 1584 -544 1568 -544
WIRE 1680 -544 1584 -544
WIRE 1168 -496 1168 -544
WIRE 1584 -464 1584 -544
WIRE 2416 -464 2416 -592
WIRE 2464 -464 2464 -496
WIRE 2464 -464 2416 -464
WIRE 2576 -464 2576 -496
WIRE 2576 -464 2464 -464
WIRE 2688 -464 2688 -528
WIRE 2688 -464 2576 -464
WIRE 2736 -464 2736 -592
WIRE 2736 -464 2688 -464
WIRE 2800 -464 2736 -464
WIRE 2464 -416 2464 -464
WIRE 2688 -416 2688 -464
WIRE 1168 -384 1168 -416
WIRE 1584 -384 1584 -400
WIRE 2688 -304 2688 -336
WIRE 2464 -288 2464 -336
WIRE 2208 -208 2128 -208
WIRE 2272 -208 2208 -208
WIRE 2384 -208 2352 -208
WIRE 2416 -208 2384 -208
WIRE 2208 -176 2208 -208
WIRE 2384 -176 2384 -208
WIRE -176 -144 -256 -144
WIRE 608 -144 -176 -144
WIRE 736 -144 608 -144
WIRE 1296 -144 816 -144
WIRE 1328 -144 1296 -144
WIRE 128 -64 48 -64
WIRE 688 -64 128 -64
WIRE 752 -64 688 -64
WIRE 1088 -64 832 -64
WIRE 1328 -64 1088 -64
WIRE 2208 -48 2208 -96
WIRE 2384 -48 2384 -112
WIRE 2464 -48 2464 -192
WIRE 368 16 320 16
WIRE 768 16 368 16
WIRE 880 16 768 16
WIRE 960 16 880 16
WIRE 1328 16 1040 16
WIRE 320 48 320 16
WIRE 1296 48 1296 -144
WIRE 2224 80 2144 80
WIRE 2336 80 2304 80
WIRE 2464 80 2432 80
WIRE 2576 80 2464 80
WIRE 2688 80 2576 80
WIRE 2720 80 2688 80
WIRE 2976 80 2976 -640
WIRE 2976 80 2816 80
WIRE 48 128 48 -64
WIRE 2688 128 2688 80
WIRE 2464 144 2464 80
WIRE 1296 160 1296 128
WIRE 1344 160 1296 160
WIRE 1456 160 1424 160
WIRE 1472 160 1456 160
WIRE 2576 160 2576 80
WIRE 320 176 320 128
WIRE -256 192 -256 -144
WIRE 608 192 608 -144
WIRE 688 192 688 -64
WIRE 768 192 768 16
WIRE 1296 192 1296 160
WIRE 1456 208 1456 160
WIRE 48 256 48 208
WIRE 2416 256 2416 128
WIRE 2464 256 2464 224
WIRE 2464 256 2416 256
WIRE 2576 256 2576 224
WIRE 2576 256 2464 256
WIRE 2688 256 2688 192
WIRE 2688 256 2576 256
WIRE 2736 256 2736 128
WIRE 2736 256 2688 256
WIRE 2800 256 2736 256
WIRE 1296 288 1296 272
WIRE 1456 288 1456 272
WIRE 608 304 608 256
WIRE 688 304 688 256
WIRE 688 304 608 304
WIRE 768 304 768 256
WIRE 768 304 688 304
WIRE 2464 304 2464 256
WIRE 2688 304 2688 256
WIRE 1088 320 1088 -64
WIRE -256 336 -256 272
WIRE 2688 416 2688 384
WIRE 1088 432 1088 400
WIRE 1136 432 1088 432
WIRE 1248 432 1216 432
WIRE 1264 432 1248 432
WIRE 2464 432 2464 384
WIRE 1088 464 1088 432
WIRE 1248 480 1248 432
WIRE 2208 512 2128 512
WIRE 2272 512 2208 512
WIRE 2384 512 2352 512
WIRE 2416 512 2384 512
WIRE 2208 544 2208 512
WIRE 2384 544 2384 512
WIRE 1088 560 1088 544
WIRE 1248 560 1248 544
WIRE -144 608 -192 608
WIRE -112 608 -144 608
WIRE 176 608 144 608
WIRE 240 608 176 608
WIRE 336 608 240 608
WIRE 880 608 880 16
WIRE 240 624 240 608
WIRE 2208 672 2208 624
WIRE 2384 672 2384 608
WIRE 2464 672 2464 528
WIRE -144 704 -144 608
WIRE -112 704 -144 704
WIRE 240 720 240 688
WIRE 880 720 880 688
WIRE 928 720 880 720
WIRE 1040 720 1008 720
WIRE 1056 720 1040 720
WIRE 880 752 880 720
WIRE 1040 768 1040 720
WIRE 2208 784 2144 784
WIRE 2336 784 2288 784
WIRE 2464 784 2432 784
WIRE 2576 784 2464 784
WIRE 2688 784 2576 784
WIRE 2720 784 2688 784
WIRE 2976 784 2976 80
WIRE 2976 784 2816 784
WIRE 3136 784 2976 784
WIRE 3392 784 3136 784
WIRE -192 800 -224 800
WIRE -112 800 -128 800
WIRE 176 800 176 608
WIRE 176 800 144 800
WIRE 2688 832 2688 784
WIRE 3136 832 3136 784
WIRE 880 848 880 832
WIRE 1040 848 1040 832
WIRE 2464 848 2464 784
WIRE 3392 848 3392 784
WIRE -224 864 -224 800
WIRE 2576 864 2576 784
WIRE 16 880 16 864
WIRE 1280 944 1264 944
WIRE 1296 944 1280 944
WIRE 2416 960 2416 832
WIRE 2464 960 2464 928
WIRE 2464 960 2416 960
WIRE 2576 960 2576 928
WIRE 2576 960 2464 960
WIRE 2688 960 2688 896
WIRE 2688 960 2576 960
WIRE 2736 960 2736 832
WIRE 2736 960 2688 960
WIRE 2800 960 2736 960
WIRE 928 976 912 976
WIRE 1632 976 1616 976
WIRE 3136 976 3136 912
WIRE 2464 1008 2464 960
WIRE 2688 1008 2688 960
WIRE 816 1072 768 1072
WIRE 912 1072 912 976
WIRE 912 1072 880 1072
WIRE 1120 1072 1072 1072
WIRE 1184 1088 1152 1088
WIRE 1264 1088 1264 944
WIRE 1264 1088 1248 1088
WIRE 816 1104 784 1104
WIRE 1072 1104 1072 1072
WIRE 1072 1104 880 1104
WIRE 1152 1104 1152 1088
WIRE 1184 1104 1152 1104
WIRE 3136 1104 3136 1040
WIRE 3392 1104 3392 928
WIRE 1152 1120 1152 1104
WIRE 1184 1120 1152 1120
WIRE 2688 1120 2688 1088
WIRE 1104 1136 944 1136
WIRE 1184 1136 1168 1136
WIRE 2464 1136 2464 1088
WIRE 1152 1152 1152 1120
WIRE 1200 1152 1200 1136
WIRE 1200 1152 1152 1152
WIRE 1200 1168 1200 1152
WIRE 800 1216 736 1216
WIRE 944 1216 944 1136
WIRE 944 1216 864 1216
WIRE 1072 1216 1072 1104
WIRE 1088 1216 1072 1216
WIRE 1184 1216 1152 1216
WIRE 2208 1216 2128 1216
WIRE 2272 1216 2208 1216
WIRE 2384 1216 2352 1216
WIRE 2416 1216 2384 1216
WIRE 1184 1232 1168 1232
WIRE 1616 1232 1616 976
WIRE 1616 1232 1248 1232
WIRE -320 1248 -336 1248
WIRE 784 1248 784 1104
WIRE 784 1248 608 1248
WIRE 800 1248 784 1248
WIRE 1072 1248 864 1248
WIRE 1184 1248 1136 1248
WIRE 2208 1248 2208 1216
WIRE 2384 1248 2384 1216
WIRE -320 1264 -352 1264
WIRE 0 1264 -256 1264
WIRE 1168 1264 1168 1232
WIRE 1184 1264 1168 1264
WIRE -352 1280 -352 1264
WIRE -320 1280 -352 1280
WIRE 1088 1280 1072 1280
WIRE 1184 1280 1152 1280
WIRE -352 1296 -352 1280
WIRE -320 1296 -352 1296
WIRE 1168 1296 1168 1264
WIRE 1200 1296 1200 1280
WIRE 1200 1296 1168 1296
WIRE -352 1312 -352 1296
WIRE -320 1312 -352 1312
WIRE 1200 1312 1200 1296
WIRE -352 1328 -352 1312
WIRE -304 1328 -304 1312
WIRE -304 1328 -352 1328
WIRE 624 1344 560 1344
WIRE 1072 1344 1072 1280
WIRE 1072 1344 688 1344
WIRE 608 1376 608 1248
WIRE 608 1376 560 1376
WIRE 624 1376 608 1376
WIRE 2208 1376 2208 1328
WIRE 2384 1376 2384 1312
WIRE 2464 1376 2464 1232
FLAG 1296 288 0
FLAG 320 256 0
FLAG 48 336 0
FLAG -256 416 0
FLAG 1200 1168 0
FLAG 1200 1312 0
FLAG 1456 288 0
FLAG -176 -144 UMBILICAL
FLAG 128 -64 BATT_1
FLAG 368 16 BATT_2
FLAG 1088 560 0
FLAG 880 848 0
FLAG 1472 160 Umbilical_comparator
FLAG 1264 432 BATT_1_comparator
FLAG 1056 720 BATT_2_comparator
FLAG 768 1072 Umbilical_comparator
FLAG 736 1216 BATT_1_comparator
FLAG 560 1344 BATT_2_comparator
FLAG 688 304 LDO_POWER
FLAG 16 880 0
FLAG 240 720 0
FLAG -224 864 0
FLAG -192 608 LDO_POWER
FLAG 336 608 LOGIC_POWER
FLAG 560 1376 LOGIC_POWER
FLAG 1248 560 0
FLAG 1040 848 0
FLAG -784 -1488 Umbilical_gate_control_logic_output
FLAG -784 -1408 BATT_1_gate_control_logic_output
FLAG -784 -1328 BATT_2_gate_control_signal_logic_output
FLAG 544 -928 UMBILICAL
FLAG -176 -1488 Umbilical_gate_control_signal
FLAG -176 -1408 BATT_1_gate_control_signal
FLAG -176 -1328 BATT_2_gate_control_signal
FLAG 912 976 Umbilical_gate_control_logic_output
FLAG 1280 944 BATT_1_gate_control_logic_output
FLAG 1616 976 BATT_2_gate_control_signal_logic_output
FLAG 544 -768 BATT_1
FLAG 544 -608 BATT_2
FLAG 1584 -384 0
FLAG 1680 -544 RESET_GATE
FLAG 1328 -1328 LOGIC_POWER
FLAG -592 -928 0
FLAG 1328 -1040 SIGNAL_MOSFET
FLAG -752 -1104 SIGNAL_MOSFET
FLAG 720 -992 Umbilical_gate_control_logic_output
FLAG 720 -832 BATT_1_gate_control_logic_output
FLAG 720 -672 BATT_2_gate_control_signal_logic_output
FLAG 1040 -1040 0
FLAG -128 -1072 RESET_GATE
FLAG 208 -1120 0
FLAG 400 -1136 RESET_CLK
FLAG 432 -1072 0
FLAG 1584 -704 0
FLAG 1680 -864 RESET_CLK
FLAG 992 -768 0
FLAG 2688 416 0
FLAG 2128 512 BATT_1_gate_control_signal
FLAG 2144 80 BATT_1
FLAG 2464 1376 0
FLAG 2688 1120 0
FLAG 2208 1376 0
FLAG 2384 1376 0
FLAG 2144 784 BATT_2
FLAG 2128 1216 BATT_2_gate_control_signal
FLAG 2464 -48 0
FLAG 2688 -304 0
FLAG 2208 -48 0
FLAG 2384 -48 0
FLAG 2144 -640 UMBILICAL
FLAG 2128 -208 Umbilical_gate_control_signal
FLAG 2464 672 0
FLAG 2384 672 0
FLAG 2208 672 0
FLAG 3136 1104 0
FLAG 3392 1104 0
FLAG 752 -1232 Deny_Signal
FLAG 3392 784 OUTPUT_RAIL
FLAG 544 -896 OUTPUT_RAIL
FLAG 544 -736 OUTPUT_RAIL
FLAG 544 -576 OUTPUT_RAIL
FLAG 1168 -384 0
FLAG 2800 960 BATT_2_GATE
FLAG 2800 256 BATT_1_GATE
FLAG 2800 -464 UMB_GATE
FLAG 656 -1280 0
FLAG 608 -1072 0
FLAG 528 -1072 0
FLAG -304 1328 0
FLAG 880 -928 0
FLAG 880 -768 0
FLAG 880 -608 0
SYMBOL voltage -256 320 R0
WINDOW 123 0 0 Left 0
WINDOW 39 0 0 Left 0
WINDOW 3 24 96 Left 1
SYMATTR Value PULSE(0 48 0 10m 4m 200m 5 1)
SYMATTR InstName UMBILICAL
SYMBOL voltage 48 240 R0
WINDOW 123 0 0 Left 0
WINDOW 39 0 0 Left 0
WINDOW 3 24 96 Left 1
SYMATTR Value PULSE(0 16.8 0 10m 10m 500m 5 1)
SYMATTR InstName BATT_1
SYMBOL voltage 320 160 R0
WINDOW 123 0 0 Left 0
WINDOW 39 0 0 Left 0
WINDOW 3 24 96 Left 1
SYMATTR Value PULSE(0 16.8 0 10m 100m 10 11 1)
SYMATTR InstName BATT_2
SYMBOL res 1280 32 R0
SYMATTR InstName R1
SYMATTR Value 10000
SYMBOL res 1280 176 R0
SYMATTR InstName R2
SYMATTR Value 1250
SYMBOL cap 1472 208 M0
WINDOW 3 -50 49 Left 2
WINDOW 0 -21 10 Left 2
SYMATTR Value 100n
SYMATTR InstName C2
SYMBOL Digital\\diffschmitt 624 1296 R0
WINDOW 3 201 104 Right 0
SYMATTR Value Trise=1u, Vhigh = 5, Vt = 0.1, Vh = 0.05
SYMATTR InstName A7
SYMBOL Digital\\diffschmitt 800 1168 R0
WINDOW 3 170 115 Right 0
SYMATTR Value Trise=1u, Vhigh = 5, Vt = 0.1, Vh = 0.05
SYMATTR InstName A8
SYMBOL Digital\\diffschmitt 816 1024 R0
WINDOW 3 248 102 Right 0
SYMATTR Value Trise=20u, Vhigh = 5, Vt = 0.05, Vh = 0.075, Td = 5u
SYMATTR InstName A9
SYMBOL res 1328 144 M90
WINDOW 0 0 56 VBottom 2
WINDOW 3 32 56 VTop 2
SYMATTR InstName R8
SYMATTR Value 1000
SYMBOL bv -256 176 R0
WINDOW 3 24 96 Left 1
SYMATTR Value V=white(2e4*time) / 13
SYMATTR InstName UMBILICAL_Noise
SYMBOL bv 48 112 R0
WINDOW 3 24 96 Left 1
SYMATTR Value V=white(2e4*time) / 13
SYMATTR InstName BATT_1_Noise
SYMBOL bv 320 32 R0
WINDOW 3 24 96 Left 1
SYMATTR Value V=white(2e4*time) / 13
SYMATTR InstName BATT_2_Noise
SYMBOL res 1072 304 R0
SYMATTR InstName R3
SYMATTR Value 10000
SYMBOL res 1072 448 R0
SYMATTR InstName R4
SYMATTR Value 4500
SYMBOL res 864 592 R0
SYMATTR InstName R6
SYMATTR Value 10000
SYMBOL res 864 736 R0
SYMATTR InstName R12
SYMATTR Value 4500
SYMBOL cap -128 784 R90
WINDOW 0 0 32 VBottom 2
WINDOW 3 32 32 VTop 2
SYMATTR InstName C7
SYMATTR Value 1n
SYMBOL cap 224 624 R0
SYMATTR InstName C8
SYMATTR Value 4.7µ
SYMATTR SpiceLine Rser=1.5m
SYMBOL ADM7170-5.0 16 704 R0
SYMATTR InstName U1
SYMBOL cap 1264 480 M0
WINDOW 3 -50 49 Left 2
WINDOW 0 -36 11 Left 2
SYMATTR Value 100n
SYMATTR InstName C11
SYMBOL res 1120 416 M90
WINDOW 0 0 56 VBottom 2
WINDOW 3 32 56 VTop 2
SYMATTR InstName R32
SYMATTR Value 1000
SYMBOL cap 1056 768 M0
WINDOW 3 -50 49 Left 2
WINDOW 0 -36 13 Left 2
SYMATTR Value 100n
SYMATTR InstName C12
SYMBOL res 912 704 M90
WINDOW 0 0 56 VBottom 2
WINDOW 3 32 56 VTop 2
SYMATTR InstName R33
SYMATTR Value 1000
SYMBOL schottky 752 192 R0
SYMATTR InstName D1
SYMBOL schottky 672 192 R0
SYMATTR InstName D2
SYMBOL schottky 592 192 R0
SYMATTR InstName D4
SYMBOL Digital\\diffschmitt 624 -976 R0
WINDOW 3 1 111 Right 1
SYMATTR Value Trise=1u, Vhigh = 5, Vt = 0.05, Vh = 0.075, Td = 10n
SYMATTR InstName A12
SYMBOL Digital\\diffschmitt 624 -816 R0
WINDOW 3 1 111 Right 1
SYMATTR Value Trise=1u, Vhigh = 5, Vt = 0.05, Vh = 0.075, Td = 10n
SYMATTR InstName A14
SYMBOL Digital\\diffschmitt 624 -656 R0
WINDOW 3 1 111 Right 1
SYMATTR Value Trise=1u, Vhigh = 5, Vt = 0.05, Vh = 0.075, Td = 10n
SYMATTR InstName A16
SYMBOL pmos -640 -1280 M270
SYMATTR InstName M7
SYMATTR Value Si1555DL_P
SYMBOL pmos -512 -1360 M270
SYMATTR InstName M1
SYMATTR Value Si1555DL_P
SYMBOL pmos -384 -1440 M270
SYMATTR InstName M6
SYMATTR Value Si1555DL_P
SYMBOL cap 1568 -464 R0
SYMATTR InstName C10
SYMATTR Value 9n
SYMBOL res 1504 -560 R90
WINDOW 0 0 56 VBottom 2
WINDOW 3 32 56 VTop 2
SYMATTR InstName R36
SYMATTR Value 5000
SYMBOL res 1440 -656 R90
WINDOW 0 0 56 VBottom 2
WINDOW 3 32 56 VTop 2
SYMATTR InstName R16
SYMATTR Value 1000
SYMBOL res 1232 -1200 R90
WINDOW 0 0 56 VBottom 2
WINDOW 3 32 56 VTop 2
SYMATTR InstName R38
SYMATTR Value 330
SYMBOL res -736 -1264 R0
SYMATTR InstName R34
SYMATTR Value 330
SYMBOL res -608 -1264 R0
SYMATTR InstName R35
SYMATTR Value 330
SYMBOL res -480 -1264 R0
SYMATTR InstName R37
SYMATTR Value 330
SYMBOL res -608 -1056 R0
SYMATTR InstName R48
SYMATTR Value 10000
SYMBOL pmos 1264 -1104 M180
SYMATTR InstName M11
SYMATTR Value Si1555DL_P
SYMBOL res 1024 -1168 R0
SYMATTR InstName R5
SYMATTR Value 33000
SYMBOL Digital\\dflop 608 -1232 R0
WINDOW 3 -119 -20 Left 2
SYMATTR Value Vhigh = 5
SYMATTR InstName A11
SYMBOL Digital\\or 464 -1184 R0
WINDOW 0 -2 23 Left 2
WINDOW 3 -80 20 Left 1
SYMATTR InstName A20
SYMATTR Value Vhigh = 5
SYMBOL diode 1536 -656 R90
WINDOW 0 0 32 VBottom 2
WINDOW 3 32 32 VTop 2
SYMATTR InstName D5
SYMBOL cap 1568 -784 R0
SYMATTR InstName C15
SYMATTR Value 17n
SYMBOL res 1504 -880 R90
WINDOW 0 0 56 VBottom 2
WINDOW 3 32 56 VTop 2
SYMATTR InstName R39
SYMATTR Value 5000
SYMBOL res 1440 -976 R90
WINDOW 0 0 56 VBottom 2
WINDOW 3 32 56 VTop 2
SYMATTR InstName R40
SYMATTR Value 1000
SYMBOL diode 1536 -976 R90
WINDOW 0 0 32 VBottom 2
WINDOW 3 32 32 VTop 2
SYMATTR InstName D6
SYMBOL Digital\\or 992 -912 R0
WINDOW 0 -6 22 Left 2
WINDOW 3 -4 1 Left 1
SYMATTR InstName A10
SYMATTR Value Vhigh = 5, Td = 33n
SYMBOL pmos 2336 128 R270
WINDOW 3 56 72 Left 0
SYMATTR Value Si7469DP
SYMATTR InstName M14
SYMBOL pmos 2816 128 M270
WINDOW 3 56 72 Left 0
SYMATTR Value Si7469DP
SYMATTR InstName M15
SYMBOL res 2448 128 R0
SYMATTR InstName R42
SYMATTR Value 5000
SYMBOL cap 2560 160 R0
SYMATTR InstName C19
SYMATTR Value 10p
SYMBOL zener 2704 192 R180
WINDOW 0 24 64 Left 2
WINDOW 3 24 0 Left 1
SYMATTR InstName D7
SYMATTR Value EDZV13B
SYMBOL res 2448 288 R0
SYMATTR InstName R43
SYMATTR Value 650
SYMBOL nmos 2416 432 R0
SYMATTR InstName M16
SYMATTR Value BSC047N08NS3
SYMBOL res 2672 288 R0
SYMATTR InstName R44
SYMATTR Value 10e5
SYMBOL res 2368 496 R90
WINDOW 0 0 56 VBottom 2
WINDOW 3 32 56 VTop 2
SYMATTR InstName R45
SYMATTR Value 220
SYMBOL res 2192 528 R0
SYMATTR InstName R46
SYMATTR Value 10000
SYMBOL cap 2368 544 R0
SYMATTR InstName C20
SYMATTR Value 10p
SYMBOL pmos 2336 832 R270
WINDOW 3 56 72 Left 0
SYMATTR Value Si7469DP
SYMATTR InstName M10
SYMBOL pmos 2816 832 M270
WINDOW 3 56 72 Left 0
SYMATTR Value Si7469DP
SYMATTR InstName M12
SYMBOL res 2448 832 R0
SYMATTR InstName R19
SYMATTR Value 5000
SYMBOL cap 2560 864 R0
SYMATTR InstName C18
SYMATTR Value 10p
SYMBOL zener 2704 896 R180
WINDOW 0 24 64 Left 2
WINDOW 3 24 0 Left 1
SYMATTR InstName D3
SYMATTR Value EDZV13B
SYMBOL res 2448 992 R0
SYMATTR InstName R20
SYMATTR Value 650
SYMBOL nmos 2416 1136 R0
SYMATTR InstName M13
SYMATTR Value BSC047N08NS3
SYMBOL res 2672 992 R0
SYMATTR InstName R41
SYMATTR Value 10e5
SYMBOL res 2368 1200 R90
WINDOW 0 0 56 VBottom 2
WINDOW 3 32 56 VTop 2
SYMATTR InstName R47
SYMATTR Value 110
SYMBOL res 2192 1232 R0
SYMATTR InstName R49
SYMATTR Value 10000
SYMBOL cap 2368 1248 R0
SYMATTR InstName C21
SYMATTR Value 10p
SYMBOL pmos 2336 -592 R270
WINDOW 3 56 72 Left 0
SYMATTR Value Si7469DP
SYMATTR InstName M17
SYMBOL pmos 2816 -592 M270
WINDOW 3 56 72 Left 0
SYMATTR Value Si7469DP
SYMATTR InstName M18
SYMBOL res 2448 -592 R0
SYMATTR InstName R50
SYMATTR Value 10000
SYMBOL cap 2560 -560 R0
SYMATTR InstName C22
SYMATTR Value 10p
SYMBOL nmos 2416 -288 R0
SYMATTR InstName M19
SYMATTR Value BSC047N08NS3
SYMBOL res 2672 -432 R0
SYMATTR InstName R51
SYMATTR Value 10e5
SYMBOL res 2368 -224 R90
WINDOW 0 0 56 VBottom 2
WINDOW 3 32 56 VTop 2
SYMATTR InstName R52
SYMATTR Value 220
SYMBOL res 2192 -192 R0
SYMATTR InstName R53
SYMATTR Value 10000
SYMBOL cap 2368 -176 R0
SYMATTR InstName C23
SYMATTR Value 10p
SYMBOL zener 2704 -528 R180
WINDOW 0 24 64 Left 2
WINDOW 3 24 0 Left 1
SYMATTR InstName D9
SYMATTR Value EDZV22B
SYMBOL res 2448 -432 R0
SYMATTR InstName R54
SYMATTR Value 10000
SYMBOL res 3408 944 R180
WINDOW 0 36 76 Left 2
WINDOW 3 36 40 Left 2
SYMATTR InstName R55
SYMATTR Value 5
SYMBOL cap 3120 976 R0
SYMATTR InstName C1
SYMATTR Value 1µ
SYMBOL res 1152 -512 R0
SYMATTR InstName R7
SYMATTR Value 33000
SYMBOL res 3120 816 R0
SYMATTR InstName R11
SYMATTR Value 10
SYMBOL res 2304 768 R90
WINDOW 0 0 56 VBottom 2
WINDOW 3 32 56 VTop 2
SYMATTR InstName BATT2
SYMATTR Value 0.01
SYMBOL res 2320 64 R90
WINDOW 0 0 56 VBottom 2
WINDOW 3 32 56 VTop 2
SYMATTR InstName BATT1
SYMATTR Value 0.01
SYMBOL res 2304 -656 R90
WINDOW 0 0 56 VBottom 2
WINDOW 3 32 56 VTop 2
SYMATTR InstName UMB
SYMATTR Value 0.01
SYMBOL ind 832 -160 R90
WINDOW 0 5 56 VBottom 2
WINDOW 3 32 56 VTop 2
SYMATTR InstName L1
SYMATTR Value 20n
SYMBOL ind 848 -80 R90
WINDOW 0 5 56 VBottom 2
WINDOW 3 32 56 VTop 2
SYMATTR InstName L2
SYMATTR Value 20n
SYMBOL ind 1056 0 R90
WINDOW 0 5 56 VBottom 2
WINDOW 3 32 56 VTop 2
SYMATTR InstName L3
SYMATTR Value 20n
SYMBOL res 1136 -880 R90
WINDOW 0 0 56 VBottom 2
WINDOW 3 32 56 VTop 2
SYMATTR InstName R9
SYMATTR Value 0.001
SYMBOL res 1296 -1312 R0
SYMATTR InstName R10
SYMATTR Value 0.001
SYMBOL Digital\\and -288 1216 R0
WINDOW 3 -71 -7 Left 0
SYMATTR Value Vhigh = 4.9, Vlow = 0.1,Td = 5n, Trise = 10n, Tfall = 10n
SYMATTR InstName A5
SYMBOL Digital\\schmtbuf -400 1184 R0
WINDOW 3 74 39 Left 0
SYMATTR InstName A13
SYMATTR Value Vhigh = 4.9, Vlow = 0.1, Vt = 2.5, Vh =1
SYMBOL Digital\\schmtbuf 1120 1008 R0
WINDOW 0 3 33 Left 1
WINDOW 3 3 22 Left 0
SYMATTR InstName A15
SYMATTR Value Vhigh = 4.9, Vlow = 0.1, Vt = 2.5, Vh =1
SYMBOL Digital\\schmtbuf 1104 1072 R0
WINDOW 0 3 33 Left 1
WINDOW 3 3 22 Left 0
SYMATTR InstName A21
SYMATTR Value Vhigh = 4.9, Vlow = 0.1, Vt = 2.5, Vh =1
SYMBOL Digital\\schmtbuf 1088 1152 R0
WINDOW 0 33 52 Left 0
WINDOW 3 -211 88 Left 0
SYMATTR InstName A1
SYMATTR Value Vhigh = 4.9, Vlow = 0.1, Vt = 2.5, Vh =1
SYMBOL Digital\\schmtbuf 1072 1184 R0
WINDOW 0 32 53 Left 0
WINDOW 3 -193 45 Left 0
SYMATTR InstName A23
SYMATTR Value Vhigh = 4.9, Vlow = 0.1, Vt = 2.5, Vh =1
SYMBOL Digital\\schmtbuf 1088 1216 R0
WINDOW 0 27 50 Left 0
WINDOW 3 -211 42 Left 0
SYMATTR InstName A24
SYMATTR Value Vhigh = 4.9, Vlow = 0.1, Vt = 2.5, Vh =1
SYMBOL Digital\\schmtbuf 768 -1104 R0
WINDOW 0 33 52 Left 0
WINDOW 3 14 42 Left 0
SYMATTR InstName A27
SYMATTR Value Vhigh = 4.9, Vlow = 0.1, Vt = 2.5, Vh =1
SYMBOL Digital\\and 896 -1056 R0
WINDOW 3 10 99 Left 0
SYMATTR Value Vhigh = 4.9, Vlow = 0.1,Td = 5n, Trise = 2.5n, Tfall = 10n
SYMATTR InstName A28
SYMBOL Digital\\schmtbuf 768 -1056 R0
WINDOW 0 33 52 Left 0
WINDOW 3 14 42 Left 0
SYMATTR InstName A19
SYMATTR Value Vhigh = 4.9, Vlow = 0.1, Vt = 2.5, Vh =1
SYMBOL Digital\\schmtbuf 768 -1008 R0
WINDOW 0 33 52 Left 0
WINDOW 3 14 42 Left 0
SYMATTR InstName A25
SYMATTR Value Vhigh = 4.9, Vlow = 0.1, Vt = 2.5, Vh =1
SYMBOL Digital\\schmtbuf 768 -944 R0
WINDOW 0 33 52 Left 0
WINDOW 3 14 42 Left 0
SYMATTR InstName A26
SYMATTR Value Vhigh = 4.9, Vlow = 0.1, Vt = 2.5, Vh =1
SYMBOL Digital\\schmtbuf 768 -896 R0
WINDOW 0 33 52 Left 0
WINDOW 3 14 42 Left 0
SYMATTR InstName A29
SYMATTR Value Vhigh = 4.9, Vlow = 0.1, Vt = 2.5, Vh =1
SYMBOL Digital\\schmtbuf 768 -848 R0
WINDOW 0 33 52 Left 0
WINDOW 3 14 42 Left 0
SYMATTR InstName A30
SYMATTR Value Vhigh = 4.9, Vlow = 0.1, Vt = 2.5, Vh =1
SYMBOL Digital\\schmtbuf 768 -784 R0
WINDOW 0 33 52 Left 0
WINDOW 3 14 42 Left 0
SYMATTR InstName A31
SYMATTR Value Vhigh = 4.9, Vlow = 0.1, Vt = 2.5, Vh =1
SYMBOL Digital\\schmtbuf 768 -736 R0
WINDOW 0 33 52 Left 0
WINDOW 3 14 42 Left 0
SYMATTR InstName A33
SYMATTR Value Vhigh = 4.9, Vlow = 0.1, Vt = 2.5, Vh =1
SYMBOL Digital\\schmtbuf 768 -688 R0
WINDOW 0 33 52 Left 0
WINDOW 3 14 42 Left 0
SYMATTR InstName A34
SYMATTR Value Vhigh = 4.9, Vlow = 0.1, Vt = 2.5, Vh =1
SYMBOL Digital\\schmtbuf 48 -1280 R0
WINDOW 0 33 52 Left 0
WINDOW 3 14 42 Left 0
SYMATTR InstName A36
SYMATTR Value Vhigh = 4.9, Vlow = 0.1, Vt = 2.5, Vh =1
SYMBOL Digital\\and 224 -1232 R0
WINDOW 3 -35 11 Left 0
SYMATTR Value Vhigh = 4.9, Vlow = 0.1,Td = 5n, Trise = 10n, Tfall = 10n
SYMATTR InstName A4
SYMBOL Digital\\schmtbuf 48 -1232 R0
WINDOW 0 33 52 Left 0
WINDOW 3 14 42 Left 0
SYMATTR InstName A37
SYMATTR Value Vhigh = 4.9, Vlow = 0.1, Vt = 2.5, Vh =1
SYMBOL Digital\\schmtbuf 48 -1184 R0
WINDOW 0 33 52 Left 0
WINDOW 3 14 42 Left 0
SYMATTR InstName A38
SYMATTR Value Vhigh = 4.9, Vlow = 0.1, Vt = 2.5, Vh =1
SYMBOL Digital\\schmtbuf 48 -1136 R0
WINDOW 0 33 52 Left 0
WINDOW 3 14 42 Left 0
SYMATTR InstName A39
SYMATTR Value Vhigh = 4.9, Vlow = 0.1, Vt = 2.5, Vh =1
SYMBOL Digital\\and 896 -896 R0
WINDOW 3 10 99 Left 0
SYMATTR Value Vhigh = 4.9, Vlow = 0.1,Td = 5n, Trise = 2.5n, Tfall = 10n
SYMATTR InstName A32
SYMBOL Digital\\and 896 -736 R0
WINDOW 3 10 99 Left 0
SYMATTR Value Vhigh = 4.9, Vlow = 0.1,Td = 5n, Trise = 2.5n, Tfall = 10n
SYMATTR InstName A35
SYMBOL Digital\\and 1216 1040 R0
WINDOW 3 10 99 Left 0
SYMATTR Value Vhigh = 4.9, Vlow = 0.1,Td = 5n, Trise = 2.5n, Tfall = 10n
SYMATTR InstName A40
SYMBOL Digital\\and 1216 1184 R0
WINDOW 3 10 99 Left 0
SYMATTR Value Vhigh = 4.9, Vlow = 0.1,Td = 5n, Trise = 2.5n, Tfall = 10n
SYMATTR InstName A2
SYMBOL Digital\\schmtinv -80 -1280 R0
WINDOW 0 8 32 Left 1
WINDOW 3 13 299 Left 0
SYMATTR InstName A22
SYMATTR Value td = 5n, Vhigh  = 4.9, Vlow = 0.1, Vt = 2.81, Vh = 0.555, Trise = 2.5n
SYMBOL Digital\\schmtinv -80 -1232 R0
WINDOW 0 8 32 Left 1
WINDOW 3 13 299 Left 0
SYMATTR InstName A3
SYMATTR Value td = 5n, Vhigh  = 4.9, Vlow = 0.1, Vt = 2.81, Vh = 0.555, Trise = 2.5n
SYMBOL Digital\\schmtinv -80 -1184 R0
WINDOW 0 8 32 Left 1
WINDOW 3 13 299 Left 0
SYMATTR InstName A6
SYMATTR Value td = 5n, Vhigh  = 4.9, Vlow = 0.1, Vt = 2.81, Vh = 0.555, Trise = 2.5n
SYMBOL Digital\\schmtinv -80 -1136 R0
WINDOW 0 8 32 Left 1
WINDOW 3 13 299 Left 0
SYMATTR InstName A17
SYMATTR Value td = 5n, Vhigh  = 4.9, Vlow = 0.1, Vt = 2.81, Vh = 0.555, Trise = 2.5n
TEXT -256 -200 Left 2 !.tran 800m
TEXT 640 1480 Left 2 ;Need to switch all the output signals to not invert the signal
TEXT 1432 104 Left 2 ;common switch debouncing values
TEXT 8 -272 Left 2 ;ORing diodes or or gate, this needs to supply some current to turn on the transmission gate so idk?
TEXT -472 -1712 Left 2 ;Maybe use transmission gates here or something (single rail transmission gates)
TEXT -272 -1584 Left 2 ;If the propogation delay is high, then the and gate wont read a fast switch over event, maybe add some sort of delay so down time is more easier to detect.
TEXT 1104 1384 Left 2 ;Any decoupling capacitors here?
TEXT -32 1016 Left 2 ;Voltage divider so when the umbilical falls below 30V this switches off
