* D:\General Data\Files\Projects\1) Major Projects\SOAR PMB REV 2\Code\SOAR_PMB_Rev_2\SPICE SIMS\Switching Logic.asc
* Generated by LTspice 24.1.4 for Windows.
V1 N001 0 0
V2 N002 0 PULSE(0 20 1 100m 4u 3 5 1)
V3 N003 0 20
X§U1 N004 N005 N004 0 N006 level2 Avol=1Meg GBW=10Meg Slew=10Meg Ilimit=25m Rail=0 Vos=0 En=0 Enk=0 In=0 Ink=0 Rin=500Meg
X§U2 N004 N010 N004 0 N009 level2 Avol=1Meg GBW=10Meg Slew=10Meg Ilimit=25m Rail=0 Vos=0 En=0 Enk=0 In=0 Ink=0 Rin=500Meg
X§U3 N004 N014 N004 0 N015 level2 Avol=1Meg GBW=10Meg Slew=10Meg Ilimit=25m Rail=0 Vos=0 En=0 Enk=0 In=0 Ink=0 Rin=500Meg
R1 N001 N005 100
R2 N005 0 200
R3 N002 N010 100
R4 N010 0 200
R5 N003 N014 100
R6 N014 0 200
V4 N004 0 5
A1 N006 0 0 0 0 N007 0 0 BUF
A2 N007 0 0 0 N009 0 N008 0 OR
A4 N007 0 0 0 N013 0 N011 0 OR
A5 N009 0 0 0 0 N013 0 0 BUF
A6 0 0 0 0 0 N019 N016 0 OR
V6 N020 0 4
R7 N020 N019 100
A3 N011 0 0 0 N015 0 N012 0 OR
A7 N017 N021 N021 N021 N021 N018 N021 N021 BUF
V5 N017 0 4
V7 N021 0 4
M1 N022 P001 N023 N023 PMOS
V8 P001 0 4
V9 N022 0 4
R8 0 N023 50
.model NMOS NMOS
.model PMOS PMOS
.lib C:\Users\reinz\AppData\Local\LTspice\lib\cmp\standard.mos
.tran 3
.lib UniversalOpAmp2.lib
.backanno
.end
