Version 4.1
SHEET 1 932 964
WIRE -64 48 -144 48
WIRE 240 48 16 48
WIRE 384 48 240 48
WIRE 496 48 448 48
WIRE 656 48 576 48
WIRE 768 48 656 48
WIRE -144 80 -144 48
WIRE 240 80 240 48
WIRE 240 208 240 144
WIRE -144 224 -144 160
WIRE 336 256 304 256
WIRE 416 256 336 256
WIRE 576 256 496 256
WIRE 576 272 576 256
WIRE 240 336 240 304
FLAG -144 224 0
FLAG 240 336 0
FLAG 576 352 0
FLAG 656 112 0
FLAG 768 128 0
FLAG 336 336 0
SYMBOL zener 256 144 R180
WINDOW 0 24 64 Left 2
WINDOW 3 24 0 Left 2
SYMATTR InstName D1
SYMATTR Value BZX84C8V2L
SYMBOL voltage -144 64 R0
WINDOW 123 0 0 Left 0
WINDOW 39 0 0 Left 0
SYMATTR InstName V1
SYMATTR Value 48
SYMBOL res 32 32 R90
WINDOW 0 0 56 VBottom 2
WINDOW 3 32 56 VTop 2
SYMATTR InstName R1
SYMATTR Value 10000
SYMBOL npn 304 208 M0
SYMATTR InstName Q1
SYMBOL voltage 576 256 R0
WINDOW 123 0 0 Left 0
WINDOW 39 0 0 Left 0
SYMATTR InstName V2
SYMATTR Value PULSE(0 5 0.2 10u 10u 0.2)
SYMBOL res 512 240 R90
WINDOW 0 0 56 VBottom 2
WINDOW 3 32 56 VTop 2
SYMATTR InstName R2
SYMATTR Value 1000
SYMBOL cap 640 48 R0
SYMATTR InstName C2
SYMATTR Value 100n
SYMBOL res 752 32 R0
SYMATTR InstName R8
SYMATTR Value 10000
SYMBOL res 320 240 R0
SYMATTR InstName R9
SYMATTR Value 10000
SYMBOL schottky 384 64 R270
WINDOW 0 32 32 VTop 2
WINDOW 3 0 32 VBottom 2
SYMATTR InstName D3
SYMBOL res 592 32 R90
WINDOW 0 0 56 VBottom 2
WINDOW 3 32 56 VTop 2
SYMATTR InstName R3
SYMATTR Value 100
TEXT 200 240 Left 2 !.tran 1
