Version 4.1
SHEET 1 1412 772
WIRE 1024 48 448 48
WIRE 288 96 80 96
WIRE 448 96 448 48
WIRE 448 96 288 96
WIRE 512 96 448 96
WIRE 592 96 576 96
WIRE 592 128 592 96
WIRE 288 192 288 96
WIRE 80 208 80 96
WIRE 1024 208 1024 48
WIRE 592 224 592 208
WIRE 592 224 496 224
WIRE 704 224 592 224
WIRE 800 224 752 224
WIRE 976 224 912 224
WIRE 496 240 496 224
WIRE 592 240 592 224
WIRE 704 256 704 224
WIRE 800 256 704 256
WIRE 912 256 912 224
WIRE 912 256 864 256
WIRE 288 304 288 272
WIRE 464 304 288 304
WIRE 800 320 800 272
WIRE 288 336 288 304
WIRE 80 352 80 288
WIRE -160 368 -304 368
WIRE 464 368 464 304
WIRE 752 368 752 224
WIRE 752 368 464 368
WIRE -160 400 -160 368
WIRE 496 400 496 304
WIRE 544 400 496 400
WIRE 592 400 592 320
WIRE 592 400 544 400
WIRE 288 448 288 416
WIRE -304 464 -304 368
WIRE -352 528 -496 528
WIRE -352 544 -352 528
WIRE -496 560 -496 528
WIRE -304 576 -304 560
WIRE -304 672 -304 656
FLAG 288 448 0
FLAG 80 352 0
FLAG 544 400 0
FLAG -496 640 0
FLAG -160 400 0
FLAG -304 752 0
FLAG 800 320 0
FLAG 1024 384 0
SYMBOL voltage 80 192 R0
WINDOW 123 0 0 Left 0
WINDOW 39 0 0 Left 0
SYMATTR InstName V1
SYMATTR Value PULSE(0 5 0 30u 30u 0.5)
SYMBOL Digital\\diffschmitt 800 176 R0
WINDOW 3 153 111 Right 0
SYMATTR Value Trise=1u, Vhigh = 5, Vt = 0.1, Vh = 0.05, Vlow = -10
SYMATTR InstName A1
SYMBOL res 272 176 R0
SYMATTR InstName R1
SYMATTR Value 10000
SYMBOL res 272 320 R0
SYMATTR InstName R2
SYMATTR Value 10000
SYMBOL res 576 112 R0
SYMATTR InstName R3
SYMATTR Value 5000
SYMBOL res 576 224 R0
SYMATTR InstName R4
SYMATTR Value 10000
SYMBOL cap 480 240 R0
SYMATTR InstName C1
SYMATTR Value 5µ
SYMBOL diode 512 112 R270
WINDOW 0 32 32 VTop 2
WINDOW 3 0 32 VBottom 2
SYMATTR InstName D1
SYMBOL voltage -496 544 R0
WINDOW 123 0 0 Left 0
WINDOW 39 0 0 Left 0
SYMATTR InstName V2
SYMATTR Value -10
SYMBOL pmos -352 464 R0
SYMATTR InstName M2
SYMBOL voltage -304 656 R0
WINDOW 123 0 0 Left 0
WINDOW 39 0 0 Left 0
SYMATTR InstName V3
SYMATTR Value 10
SYMBOL res -320 560 R0
SYMATTR InstName R5
SYMATTR Value 100
SYMBOL pmos 976 304 M180
SYMATTR InstName M1
SYMBOL res 1008 288 R0
SYMATTR InstName R6
SYMATTR Value 1000
TEXT 40 472 Left 2 !.tran 1
