Version 4.1
SHEET 1 880 680
WIRE 320 160 96 160
WIRE 656 160 416 160
WIRE 96 256 96 160
WIRE 320 272 320 240
FLAG 320 272 0
FLAG 96 336 0
SYMBOL Digital\\srflop 368 112 R0
SYMATTR InstName A2
SYMBOL voltage 96 240 R0
WINDOW 123 0 0 Left 0
WINDOW 39 0 0 Left 0
SYMATTR InstName V1
SYMATTR Value PULSE(0 5 25ms 1u 1u 5ms 7ms 3)
TEXT 296 296 Left 2 !.tran 0.1
