Version 4.1
SHEET 1 880 680
WIRE 368 -64 80 -64
WIRE 368 32 368 -64
WIRE 336 48 176 48
WIRE 480 64 400 64
WIRE 336 80 240 80
WIRE 176 96 176 48
WIRE 80 112 80 -64
WIRE 240 112 240 80
FLAG 80 192 0
FLAG 240 192 0
FLAG 368 96 0
SYMBOL voltage 80 96 R0
WINDOW 123 0 0 Left 0
WINDOW 39 0 0 Left 0
SYMATTR InstName V1
SYMATTR Value 19
SYMBOL OpAmps\\UniversalOpAmp2 368 64 R0
SYMATTR InstName U1
SYMBOL voltage 240 96 R0
WINDOW 123 0 0 Left 0
WINDOW 39 0 0 Left 0
SYMATTR InstName V2
SYMATTR Value 1
SYMBOL voltage 176 80 R0
WINDOW 123 0 0 Left 0
WINDOW 39 0 0 Left 0
SYMATTR InstName V3
SYMATTR Value 5
TEXT 40 216 Left 2 !.tran 3
