Version 4.1
SHEET 1 880 680
SYMBOL LMR38025F-Q1_TRANS 224 176 R0
SYMATTR InstName U1
TEXT 80 304 Left 2 !.tran 100m
