Version 4.1
SHEET 1 880 680
TEXT 16 320 Left 2 !.tran 1m
TEXT 96 176 Left 2 !.Lib ON\\LMR38025F-Q1_TRANS.LIB
