**$ENCRYPTED_LIB
**$INTERFACE
*$
.SUBCKT LMR38025F-Q1_TRANS VIN NC EN RT/SYNC PGOOD CB SW FB GND PAD
$CDNENCSTART_ADV2
17f62b1fb318c25603aeb85644ae98a5d179ef807807791f6459efacb9d7ffc37a831b146dc0f06bb1ef275619162e6d8f7ad0dc708bf15ae1a1d5bd0ae623b2
201814650d4c64046d5738f54cb80bbf1fc3bcd07d61d970743fde768717cbdae41d348d34ef1f6a47634ff5168a1b74008c7bc3c39dcb981ec43cdac3e72527
bd665507448c518577c3312bf7f028fdd5df5cb63594a22beff679f081fe52219069877f74f38fff547edfd9953c7ca91d2b99de63b2bcf0afe4d91a5a19fa8c
4839686ba109d2a2e37788b3c11bc4a18ab2ddf66406138c3ffa4cd17cc80d63eedd499e4691cb23e06cebd1ea4e2dfb9a1703370734dc4ab2085009a1d72e9e
56cf9b7c50abb379b0b8491ac8932d91de00e229a409b0d30c4a65fae915cf083ab87de8df95f39d6dbfcb549aceada8d3977e691bddb851b99630e8414fc91a
18781808a0a7d2a7ef6eaa2dbfc358af1fcf644390664b14ba4ddaaeb8a50bde97d4993ce9991dc36897d9934d1cdf7f590b6a4d42df68dbc4bdb23b227b9e5b
0aafd2d027cd79a9104d8339a570fceebbec32135694e006b0f9f1898e416e6500d4e9bc312ed2c289e2050d6b6bd65473dec14af8825df5fddb306f34badcd8
5f74ccaee7006cd25a54b5332118cabb7df2755d5729e65fe3e687e8a4456d4a4da40b8abc025c784b405128d5d2dea2f9bfcb082950b23c37b0f68e337f2fbf
7bbd8873b791d181f5b6734969ad985d1135bf11ef46164f10894e1827b1dee753131218a8ccf94778f11f93f94f588bc92717a0a16779f818e9727fad40b4cc
318f18e47670df3a61537d1d13bf9492d9a9202f15e269bc31d4b235f3c685f8164b1ad833de9dec74512fbcef7b46cfcc4b4f5fdd98f7d9d7d23e33924d0fc7
2555d8453349177961725650e7aea0cd20b39320a81d6c70085b16d5464666eacafeb2d52620112a96162c159e5109868968f7ca215664ebde68f8c4da30dcbe
a88ed8236e139eb4f52c64fc39af1e3c057cf6ed6f2ccc6ff1126830272cf5588c00925bd761373824201e3326883e92b1b12e21143e272ef5f3a729b027bc69
52af3feef83c2708d4c7ecaf8bf2cac7eedd499e4691cb23e06cebd1ea4e2dfbe5b3aff9760d65e6133960eb923936f240844f3e135c6daca7ab94a7fca002d4
e170ae8bbcbd2b445eac9ad9c5853f94373253583cc1131e0e809eacc0a8faee1135bf11ef46164f10894e1827b1dee7aa6617c033d5de03a52cc8d6909b014c
5db7f7540b1b78a75eb2098b01fd6a8402225439bb8f1491e62e4226efdeca87782601ed0604a97af5677598ec73f7866f4eedb92921dcdd98105803baca3cf1
1791229051368c5c2560c69eebdb07f26f34908f7967ec136519f61b67c9f84520b39320a81d6c70085b16d5464666ea3f14f74388517723a284bfaf6a9efa26
24575a9149019c1176a62a600d08e88a858882be1a66498b9e3923d2470f5481e41d348d34ef1f6a47634ff5168a1b7405edef60091d8b013a8ad77a1ea10fd3
4f6179ca19c5e9d23c03093e11f54d6820b39320a81d6c70085b16d5464666eacafeb2d52620112a96162c159e5109868968f7ca215664ebde68f8c4da30dcbe
f442da3b19b79d5993fac43b3fa8912059d9a7f0a1a9eb5835c84777ef1a02b0c37913cb4ce3d19b39e3a245baf7f22d4643808de86c3b0104badbbbdeb87c3c
81ff8290a03073b30902be083e7ab79ea7e77bf3e4306e5ed3a2730ca4407f1058bd3c7ebfa0595ef818a63239c6b5f6d53b6f1a4362284d926278f315dd1073
f74bae388660e81fe30d617abc3636b07ccd6fafab3a4c6ab0f792835765645c7eee3f80d589e34bc6b2692454fecff28a544954c51370ab498aa1748a73a3bd
c7feb46d550d13f226356e33eb4a264605a3a74b34f60c2d516a0046ace7e420fa9438a779f4e9f1c7eecb14c4e0267f39d92a43e014b233f1cf5043c6591097
8167bdf42e77a2ad33d37f96661961238fbaae50cb217230ce257d7274150489b360ac9b4cbe9cbf8af24fc7a2fcea2870078c4015dbc70d8c6b1d43e353eabe
45b6837fa5e186a58de5a5488ddc1f36540e87a3c12208ad8c05c85831424393de5ba68fbd62d9985ac2640cf6ff1760d3800aa618ea8c7e63536eaf8bece735
c010ee343158e368f421e5c9e6ed82717b59be13339791326e30ecec151e3c9ff882aa92d6241eba26f1ee446674c4491de429f8d23c3f7a966cbf5a40c3f622
f76bd6e1baabced2fea8406be009d8fc130468a99237e38e4d60ca8d3fe478eddf0fc6dbe72fc3b3d6c8fc13f2cd2c2f41d9f9bb02e0a305def74c0eb0af1a2a
f1a7f3a30cfc68a5eeb3b0b2e855472b077a0b38193dfc3b1e5fde1981361256608ba0e8c0cb447ff7e42f603ddd02fb407bb6649e473daf248b19b6d7154fad
0f91b3e9bbc329d4c98da585dc4e505f596afb9c00e46f2cd9f196f7154a962abf5d654abc998445a9f9dcfae8f02a6826acfa21b4a16f7060f93a1add5447f8
89f861cfad77dae8db4a1a020554a10af227c69b804c13c5ee185794c8620d81f493f5ff4d267f764c1216e4466735332261a51cf0ed45f4b31c9f7afedc95de
b479e2168bc9d52148b045da7a22b0d76da1faf983385f849e44382808d0a8c312010240a97d28fea96756cd8c6cba10b8001dad36eef898d226979db2945a41
929f1f8add8f41e84bd90bae2422af2a2002485a79010ac5dfa4da49e56c65084dbe37129c1720d46a40119a1687d0f88db64a32ffa41434128ebc8e54326384
29c9d28a1fb47f72cb60d886c1616a5267bb6307614c1ea6d8e61323878c19f13b4291d329bc8f95a28b0b30d585b964753c5cdeb40b78af56ed1a16acd7adc0
c99b8e8933c308f2fd34311aa00258e467bb6307614c1ea6d8e61323878c19f13b4291d329bc8f95a28b0b30d585b964753c5cdeb40b78af56ed1a16acd7adc0
acadab021a5c03ea73492ae07a4ddc0cf3ea94b5baf39ed4c518367bb8c0ed772bdc97f85642ec2d5afca563ad8b590458f053e781c7358ac1c5929d6f0351e1
16b66822f7acff7043a9719af8f482713077cbd667e7b8016eb4f60b5fcef2ee9fd06019bdc258c891b4b5e8d857c9f004aac312d2a81a0fdca854e1d933f8c9
4610eb735999f2927bdff1d93da05fc3060f241c272e1edf10c2e29b9bcbb921e6e32e8f74cc8cb6ff23aed05e529dfacf974c87c3ab5ea6f80cba64f5c3ea90
a7c1398b23deb0c11b7bfb8623835f9df10fbcfe51d6a4759a786842e846d63a8798489e8ba028895d0beeb460c181042261a51cf0ed45f4b31c9f7afedc95de
7f00d90489ce647d4facfcee67f1d39df3ea94b5baf39ed4c518367bb8c0ed77e41d348d34ef1f6a47634ff5168a1b7405edef60091d8b013a8ad77a1ea10fd3
6e4d2163b2cac8b2fb3fa8efb90cda5d20b39320a81d6c70085b16d5464666eacafeb2d52620112a96162c159e5109868968f7ca215664ebde68f8c4da30dcbe
1dea8ea31a60e83b631ddc31a046913559d9a7f0a1a9eb5835c84777ef1a02b0c37913cb4ce3d19b39e3a245baf7f22d4643808de86c3b0104badbbbdeb87c3c
98880090a8b944265207df7f63e67f4495cf078052c5b553a72a105e234668e14bc3a192e985a7b06e2f0de60e8975602b1895fb9ec7f2194dfd4670c2a72fcb
698cc0351087e6bcd134a40d4f17f677e11094443e0ad07295636ccec501558a45c261cf9aaa8a05375754e320481774edcb87f7871f15b0f78d7c857db9acc8
8dbbb958602553232ee699663985026b9ef4b59b82d27b3718d136702c20e10e67bb6307614c1ea6d8e61323878c19f1d2206c1f10ae277e77526793bf4974ee
553046dd61cd94973d0e4fcab50b8cd9f244ce7ccece44dc27b81776f2f7ca4d256bbf12b34793ebdd020d77ff6f18b796597d02b3863d261e29a298d9a328df
f4b1464de8a2855e7b9d23abcb881e66000435ec28e35de71cd73df63c577dbc9d50c556798f9f7d52de3638d666fa1e8f12195a94a26406ebe6d5c993de5e7f
5affff53573614460e4862aacf069d070ee65650968c4ab33834cf64a29b50e7f7241f3e1ad15beb1610f0bad98c48d4adaf9ed1fc5517dc9cf944c93fa1299a
9debca255c969982ea8becd1e4650eab730be51ea18353f3689b069674a18ce3de5ba68fbd62d9985ac2640cf6ff1760d3800aa618ea8c7e63536eaf8bece735
d37b484f53bbc55b5bcee6cf26ff0b61282a6d214491739832368d363e5e37891135bf11ef46164f10894e1827b1dee7aa6617c033d5de03a52cc8d6909b014c
ef1cc51e07cfb4d77ef7c879d39375b22af5171e9e6b39505677100fec1fa5b659abb0ad947dddb8154312a144b57a9da16b6f989f3ee734e9176f53fae348e1
d9020900eea96fb2f75833d1d2e2aeef67bb6307614c1ea6d8e61323878c19f13b4291d329bc8f95a28b0b30d585b964753c5cdeb40b78af56ed1a16acd7adc0
0dcc8387ff41230cd152141a3d8b925c74a1bae83e4aeba89c41916c0c3d438a9b4a4b4689497f9930e2cb10a274062708a36e60141210e8883b6d851a7e594b
e694faa63d1e282520eb32c08b42abd68222499fab249d3d43f1164b7c001573571b148fb9be82b2062850967cf6fdc5dcafdc738a5298acfa1120b1614a3759
a9b18ccffb28daa5f0f3b5fb834da6e5f49c4c239ec9bfa5a3df97c88b653b1ff4d001df5a7f86aed4b3bc004038213fc53d23ad8a067fbb1c7c0420e4e2333a
d15db4b320997afbbff4122525f0645467bb6307614c1ea6d8e61323878c19f13b4291d329bc8f95a28b0b30d585b964753c5cdeb40b78af56ed1a16acd7adc0
53374cb6747c478004f3a20d77f4f44f169b2db3aedc08448cf993631962c6e39a2c1396c3347fee32e6c4b52487db7e5091e943095d145ae40ebefd5c3c1d3b
307f9a1d618543433f72edd5c6cec19c19c7908ce248bccb80700a5c6445ed16ae87decc350c96a93cba5491c532c48662b48b71518c2b9c6c5ff3cd6401a8e5
3538def6aa18d955027997055a57ae61deb9bb27252586d5e449c0d23b818d96485777baedf4f31ff1771a7c3e81fe71f2337d54b503662c8ae452e157c1d4ef
bbbdce9f3ce58be2e501c51572ba988520b39320a81d6c70085b16d5464666eacafeb2d52620112a96162c159e5109868968f7ca215664ebde68f8c4da30dcbe
d1e616faa206a32b776276ca1dd321179df191a6c9c28dd7fc8060e6a93463428f992f9a2c8068bf2017c21db2cb9391dac35d154e82432b3117ed4754dc1530
073d24607f4bb7016713cf9508414f7eb364af38ea06b9fb09446920a89765c64eec00516ecad56ea7c2a9fa686c3756d53b6f1a4362284d926278f315dd1073
7f8985a80ee4614642234011a6ace6f602c261acc456f5c92f746b8f7a065e0e12337eec6ce8cb3050487117d709463d3f9201f803909786d4f9862169ef68e5
ab853600d680f2732c981c30b42ad5e1e11094443e0ad07295636ccec501558a45c261cf9aaa8a05375754e320481774edcb87f7871f15b0f78d7c857db9acc8
c99b8e8933c308f2fd34311aa00258e467bb6307614c1ea6d8e61323878c19f13b4291d329bc8f95a28b0b30d585b964753c5cdeb40b78af56ed1a16acd7adc0
1ef8de8ff99345c19833bdf06485e6489ff2eb5d0e94d9a388ee7020827334aefacdc32dfc4b4913ee11105a3d7f0775e32fa7693fe7d495897c273f78c88792
7043673c7fd51220c80605d7193f3f63c37913cb4ce3d19b39e3a245baf7f22d6000bdca4d8cd4043370c7b33dd62bf1407bf811a74c6c60d91a28af3d1b4095
69cbf416d245089984f762b8a8bd5d7ed0fa09dc473017f98c18a8700797b2a167c16f821beb5ce52321ad8333099470f091abcbd37bf36ebf5041747130f29f
451adb36159ad9f631049bbbbbe6797de1fd85d4a766e05d05b088da673952ebf882aa92d6241eba26f1ee446674c4491de429f8d23c3f7a966cbf5a40c3f622
acc98c7d1cbe03fa3e36ced8f28c1c7927d61c04ad07b3c2f9864df2da942699596afb9c00e46f2cd9f196f7154a962a31ecea82009c2dc49248b2fedbf09fc4
8fbe0e10be03d6234dcaf7f95846395629d58d101181b4488c2256d1ce6cd7468222499fab249d3d43f1164b7c0015736659925ae467b42bf3b494cc7983ed47
6eebaeb92598c636bcbc6e0dad1e588bb8604ca81e695bdd24a9d642653ded09d2b286ec81f882cbb3c69fc550523905b4dbfdd6c45884d3bdd8e8165e39e911
d33081c5b65ad31ef0f454e4c925d7fee11094443e0ad07295636ccec501558a45c261cf9aaa8a05375754e320481774edcb87f7871f15b0f78d7c857db9acc8
910301d70f931d569b3b3d67721bb5453906bbf5a3d3ee1ff156c2ffb06eb72e2c5d61ef021347535625beb58526865f2261a51cf0ed45f4b31c9f7afedc95de
41feb93739ae4279b4d33c235bc0471b78955cec44e700916762c28a989f38a8e6ddeca8a715b6c6958c15c42dce3c45ea24a8319591b4c4e75d1d39ae9b3e5e
a96ba3ff224e05a49304539c01f3fdd11135bf11ef46164f10894e1827b1dee753131218a8ccf94778f11f93f94f588bc92717a0a16779f818e9727fad40b4cc
c90481ee0af7386efee3fdffc85162c6c81aecdf369dad9bac625a0a74faeebceedd499e4691cb23e06cebd1ea4e2dfb9a1703370734dc4ab2085009a1d72e9e
ccc3b868b805fcd68d7448cd7a17a166a17dbf909252d5fe6744a6b42ecfeee2c9a31eca3497383104440e60c18d9352447ce12a71378c85caaee3509e3f5eb8
54d571d420258da7ef52b4dde90f530dd96f70c3fd7d4e005ff323dc62c4fa3023417797a918bfd472b8d468f16f689754a24773fda87360f98e2050755b9697
dd1c3f07526eadea50ed84e543f4f14e78b12ea9a9816c9cb098b7cf519ab2cfc4c88bf14da4f0c95c539a11d718043cc861968a2bd17be87888c26ffe32f4e7
47c2234b0a69ef047439240b1dff40a9794fff24c2ac1a88a2a560ebb98dd9a4de5ba68fbd62d9985ac2640cf6ff1760d3800aa618ea8c7e63536eaf8bece735
9aa1852b8f77f1a28d42dfc489b457a967b44ec518218562bdb591196f89f7d720b39320a81d6c70085b16d5464666ea3f14f74388517723a284bfaf6a9efa26
0d69da760a68720bc3c80e1ed149beeeca7c634c1de76cb279d0659af8004186c9a31eca3497383104440e60c18d9352447ce12a71378c85caaee3509e3f5eb8
3c75b800561e2b8df7467fad3e9d455a0e7c03dda83269caab49302968ccf903e8775a44e70179f9a57a3f463aacf97a447ce12a71378c85caaee3509e3f5eb8
f2245ba2ecb2bf3461fa418f358db117feaf248885f3d2755c26992de7b108579bc7fd3f2e232fb4e8dc45d091cc1959b6dee7d1b406db17f52b73cc13617e73
0d3c41c3911ab730b2b9bd9d81ff4cad67bb6307614c1ea6d8e61323878c19f13b4291d329bc8f95a28b0b30d585b964753c5cdeb40b78af56ed1a16acd7adc0
47655d1589298c3a85394add50fa0d7be998244ce5e0b6598eec204a55039aacde5ba68fbd62d9985ac2640cf6ff1760d3800aa618ea8c7e63536eaf8bece735
36fbb544c178721041d3561e2b1588abf8070039d6bd2d3532e0aaee122f881905027767b893bd20358e84c2090df2a5f1024e99fed95335810759c19f1c6ffd
92d76faa63d15326e77569bef401d9f020b39320a81d6c70085b16d5464666eacafeb2d52620112a96162c159e5109868968f7ca215664ebde68f8c4da30dcbe
9aa1852b8f77f1a28d42dfc489b457a9fd935f9b6797beecf97a147ccf466d34596afb9c00e46f2cd9f196f7154a962a31ecea82009c2dc49248b2fedbf09fc4
87520ad4f064581e33aab06ce9b13964eca62589901ec400da2a83cf8beb7772de027728e551ac20a313e13a705c5e7f447ce12a71378c85caaee3509e3f5eb8
a07ea0449f2038464275ee4d02ec6b816ed2f34436ac0d47922697220f95b633cc16f1ddb139a05baad3ed9bd079bd3cc30517f4c7df0af5dda08e2253c88ac0
08efdb5507b115d36866e02203c8df301135bf11ef46164f10894e1827b1dee753131218a8ccf94778f11f93f94f588bc92717a0a16779f818e9727fad40b4cc
910301d70f931d569b3b3d67721bb545a2a0863e4638aac400f06f100877061704c1c53a8e602799c4fd05c3fe969246901e5253a802a302d4a7243c5594cdc1
7a53c66d72761fbd571992fd2995c181aba30d3f0e49997a1283396a329cdafef9ab34cdacc20f8e772c8258b7a2a7d4d53b6f1a4362284d926278f315dd1073
bdde47af229159e73174bc72373c3dd7d120b1e0cd544b46a5b29c31a10468fb76ac763938a76715d908025d21942f56ea24a8319591b4c4e75d1d39ae9b3e5e
a96ba3ff224e05a49304539c01f3fdd11135bf11ef46164f10894e1827b1dee753131218a8ccf94778f11f93f94f588bc92717a0a16779f818e9727fad40b4cc
c90481ee0af7386efee3fdffc85162c6c81aecdf369dad9bac625a0a74faeebceedd499e4691cb23e06cebd1ea4e2dfb9a1703370734dc4ab2085009a1d72e9e
7e2c471e52955c8ed82b6d59edf9002f2338a9c581ed8ac8c660b35b2d2d2b10381773b02a3685d528df9658d28bd2500ddba9a677d66b5b047dc94b8049143e
08efdb5507b115d36866e02203c8df301135bf11ef46164f10894e1827b1dee753131218a8ccf94778f11f93f94f588bc92717a0a16779f818e9727fad40b4cc
910301d70f931d569b3b3d67721bb545a2a0863e4638aac400f06f100877061704c1c53a8e602799c4fd05c3fe969246901e5253a802a302d4a7243c5594cdc1
c62940ef83279a475704d3ae6ff49d80adf874dc89d4fc96c2b0cd1be6f371df01ba71fc2849a1a8417a4ebeaeff327b16de07e61496b32af0d1697a091399c2
293415101e91fb66f4f5e3d678697cfb1135bf11ef46164f10894e1827b1dee753131218a8ccf94778f11f93f94f588bc92717a0a16779f818e9727fad40b4cc
db23c4d237c86907d4e1955078eebc37eedd499e4691cb23e06cebd1ea4e2dfbe5b3aff9760d65e6133960eb923936f240844f3e135c6daca7ab94a7fca002d4
6a4db2c51e9cbc6ce1b7367855d72dd50f9af9dc1cbfce6fa66d963be204a6b01135bf11ef46164f10894e1827b1dee7aa6617c033d5de03a52cc8d6909b014c
fc987bcc085b510adea01d365b66e3f7521c0f128115e8d8f384148b43056471e20fbf4d742d4b8c40e6d127912fed461fad2a32a97f6122fdc543370608bcce
eab1485206c96eb9f6fa68267e3b881a1135bf11ef46164f10894e1827b1dee753131218a8ccf94778f11f93f94f588bc92717a0a16779f818e9727fad40b4cc
ac3bd82d6158ecb592db4d2827a4e28e19c7908ce248bccb80700a5c6445ed16ae87decc350c96a93cba5491c532c48662b48b71518c2b9c6c5ff3cd6401a8e5
5cc8799643e099eed94dfcb03d80d835c74ad730838f9271ddce134a17d503dd4d213f50bb4faa96cafbfbd08ebacdb7844106dcc56694d7a446807e965fc181
23d145621d75b293b402b5d0eda45280f882aa92d6241eba26f1ee446674c4492a5a7e21196ab93102fb7539169c3681bb5325a8eb90918883c266a73bf7da9c
910301d70f931d569b3b3d67721bb5453906bbf5a3d3ee1ff156c2ffb06eb72e2c5d61ef021347535625beb58526865f2261a51cf0ed45f4b31c9f7afedc95de
02fc93d276096a37c1697046c93f695cd6781f9eb42ac1e32b968594786152fd1135bf11ef46164f10894e1827b1dee7aa6617c033d5de03a52cc8d6909b014c
2fc60eac0fcd41599a8270b41ad6ef1f0849a0253b8991a9ffa73e2924da499d7cc28fde7a95324348dfba108bd984f43020e108d3cdf5f1fc0bb7a5f518fc03
e3884d5f834867ab64ec49f4e320625020b39320a81d6c70085b16d5464666eacafeb2d52620112a96162c159e5109868968f7ca215664ebde68f8c4da30dcbe
c7b2a2768f24c4deb66d2f0beda85f9ef52ea6c78eb74a69998a4b53e8aa4a757b55e88346aa3b432332c9269ebf897c8b924b33938e66e146df809348002121
920822f6de1dd28c02e783f1e50a2407e11094443e0ad07295636ccec501558a45c261cf9aaa8a05375754e320481774edcb87f7871f15b0f78d7c857db9acc8
9aa1852b8f77f1a28d42dfc489b457a9fd935f9b6797beecf97a147ccf466d34596afb9c00e46f2cd9f196f7154a962a31ecea82009c2dc49248b2fedbf09fc4
aa8719dfac395ed30babde410ef742003f6f66c1c1b532afd0707dbd6dc34a3fd826eba0a3245f12a45945b14d538a3ff4fe115f2273b3ceb45baf92cb572a60
d2b4b84d04c019ff559d2ec95faa3900e11094443e0ad07295636ccec501558a45c261cf9aaa8a05375754e320481774edcb87f7871f15b0f78d7c857db9acc8
1afb621d343015b7503590a7c64dbd36e526b7eb50751434f087deae29a7892a6edefd443284a6f2709060fbfc5218050eca39d358300290d1c89f268c14b6d7
163d7167d0610c3abcfe5a4377efa2cd596afb9c00e46f2cd9f196f7154a962abf5d654abc998445a9f9dcfae8f02a6826acfa21b4a16f7060f93a1add5447f8
8dbbb958602553232ee699663985026b9ef4b59b82d27b3718d136702c20e10e67bb6307614c1ea6d8e61323878c19f1d2206c1f10ae277e77526793bf4974ee
946cc8e48c8d9493bdb19fe737ad4000aef7994b1feb463388cdc2f31e4f980365a710c7c40c84457d9abaa58b9687f42261a51cf0ed45f4b31c9f7afedc95de
ed47ce0a1b3f5a967bc16457c8943577e4336bfe5ea0556fbb7b01f47c789b75693314e7b7e6b528a91ae66e97bc931ff236d4031756ba82cf9bb9848384bdf8
55692f4bf88ec828e31fb45e53cb58970376d7ecd0e6eb7eadadc3f8e7182cf96390c1946717160e0cabf56a1a09042fd8e2f7fc1df990f56ccbacb7bafec2f4
b5d9e53a9f66d0405684ca4e8fe0fb7767bb6307614c1ea6d8e61323878c19f13b4291d329bc8f95a28b0b30d585b964753c5cdeb40b78af56ed1a16acd7adc0
8dbbb958602553232ee699663985026b9ef4b59b82d27b3718d136702c20e10e67bb6307614c1ea6d8e61323878c19f1d2206c1f10ae277e77526793bf4974ee
d3fd0ca08f9409198fda1f7f2efe8d48aa14fd8b7d97c8eae4cc4ca60c2de72b91cdb4fe253d0ba1b4c612040f586cfa0bd6a7d6605824e8dec14f818c63f658
ded3061c6f85fae8432048abec7f1f669e889f1e746095fb233b85a7c1985f7590909526fc77e2f11b8abb042c6320b86f4eedb92921dcdd98105803baca3cf1
7b0f92306c4fc7a058701e45b18e9a4428b0d04d3d79f1700b32934c4a944725b52b17ae8c99dede958b58db8bdda2f2d53b6f1a4362284d926278f315dd1073
be9343137ef7e4275bba13d58e3ad49125e711dba1c8f137f70facd61206a17127b8b9fd04619dfc929c25f9ce760076901e5253a802a302d4a7243c5594cdc1
8b64b4e006e8e70e1aeb1bde744f9abf45be245d1a672f4f7f50a376c2fe7d49a9b614a071b30ac74ac7bb17201acd49f236d4031756ba82cf9bb9848384bdf8
4cc454c32a2174bc419d6f207b96410013a8322d8fb3f10ba56ce0d5793b604c07d89af946315a49baac1c713137aa27d9b13134ee553962ccc4b1c4ce7cd99e
e2512cda7d90b4445e96982e9a4182dd1e5bbe470d3c3c274a58cf62da4488dc424c65e7b88e89a18b4c3eb88be13f826c207220e7477c3a700ff433d7f45156
5c3892296e3cc553f250d0ed2ca1d5131135bf11ef46164f10894e1827b1dee753131218a8ccf94778f11f93f94f588bc92717a0a16779f818e9727fad40b4cc
910301d70f931d569b3b3d67721bb5453906bbf5a3d3ee1ff156c2ffb06eb72e2c5d61ef021347535625beb58526865f2261a51cf0ed45f4b31c9f7afedc95de
0befc7cc6677dc6880f41ca9d58db18b2c5835c633798fb2ff091c86dd6ef3ce0e1bb3475d05b734ad4a7c9c8698476801d2ede1359a85bbdfffd15d93dc6197
c239fc0d16001c17e24be7b0b69f6c6b20b39320a81d6c70085b16d5464666eacafeb2d52620112a96162c159e5109868968f7ca215664ebde68f8c4da30dcbe
8dbbb958602553232ee699663985026bdcd4844856e7959232f1238d4a2c343fbf0e48bc51d35c9dbbc27072c50eea4c8289f6c53861dd62d4ac2e41ad0b16ed
c094364c951c7bf6915fe48d3326af07aadbd4167f2faeeb16b4c47f1f84957a391378b05d2a4f4b8b109c395c738654f236d4031756ba82cf9bb9848384bdf8
ea1df3c67dd684daf73c2f0ee59b1568f58c76a0ff6d323270a04c45d657119317635ae5fd3070ca753415cbb0cbafe564286c8c26a0080c81e3899f192ef18b
ee22c138a0e368324b204e353266b2bc596afb9c00e46f2cd9f196f7154a962abf5d654abc998445a9f9dcfae8f02a6826acfa21b4a16f7060f93a1add5447f8
c90481ee0af7386efee3fdffc85162c63625ddb8135bf8832d7b79c86fe324fbeedd499e4691cb23e06cebd1ea4e2dfb9a1703370734dc4ab2085009a1d72e9e
ef3db38cb070b7f75f68710515820428658588602c636462edacf4009d84a731ae9ee165a3bd78036330644c08c4dde75d329917ea2ae66f282eecc317c55b41
2067cd1d487efcaaa16c8d08a6f6b691060f241c272e1edf10c2e29b9bcbb921e6e32e8f74cc8cb6ff23aed05e529dfacf974c87c3ab5ea6f80cba64f5c3ea90
08e70f9b6e73b767d2d3fa93289d8c4905a3a74b34f60c2d516a0046ace7e420fa9438a779f4e9f1c7eecb14c4e0267fc815ff5d671602013c461cdcf90327a4
e3a31d0fcda3ccc68a751e178151fa9d1a140c3d0aa7880b4f991de842a68bfa65c279cffad4cc01f6edc3925d56aeee2261a51cf0ed45f4b31c9f7afedc95de
272c784a120fd3ed817c7fd430945825141cb89d0e68b878d2a0d28dbbf13d4172cf694c1e63259ef7ac7fd8a8dbb3cb64286c8c26a0080c81e3899f192ef18b
ee22c138a0e368324b204e353266b2bc596afb9c00e46f2cd9f196f7154a962abf5d654abc998445a9f9dcfae8f02a6826acfa21b4a16f7060f93a1add5447f8
47655d1589298c3a85394add50fa0d7be998244ce5e0b6598eec204a55039aacde5ba68fbd62d9985ac2640cf6ff1760d3800aa618ea8c7e63536eaf8bece735
40acfd8c6d2fb471100b18de325d219c49838bf3dd06f0e59040c003ebdbb63da29adc99c2105f683c5a951c69e3e0f21f1088c6c0f85db2928ed32aff83205c
e4b8c6f43447663825892865295badd72b7cc45bc3485677f5d1fab5cdbd2051f033840dc057ad3a81e6e16ec0a0ab36918bafe0f69ad5f7e72fde3ae8a0a9b9
ebc6fdf36f0e7607226a6c70057bdfc11fcf644390664b14ba4ddaaeb8a50bde97d4993ce9991dc36897d9934d1cdf7f590b6a4d42df68dbc4bdb23b227b9e5b
a4c7bf5d9608835aa7396c12ebc89166bb5011bf61fd92c068b80781656b92610c21a797012846478af4b35c1fdb2e2ba1ff3f6ce3f4bec6eb933218a6bc9313
0d26bf6b52785b17051af2d0875633578222499fab249d3d43f1164b7c001573571b148fb9be82b2062850967cf6fdc5dcafdc738a5298acfa1120b1614a3759
65376554878ae9c8f9f0b68848df87641faa53f67c6e5b6dc510665e549bc517c46b3a146dd7ac7335e484295d58e92e64286c8c26a0080c81e3899f192ef18b
ee22c138a0e368324b204e353266b2bc596afb9c00e46f2cd9f196f7154a962abf5d654abc998445a9f9dcfae8f02a6826acfa21b4a16f7060f93a1add5447f8
c90481ee0af7386efee3fdffc85162c666662e8e4ae17662a2d12e09c6b2ec76060f241c272e1edf10c2e29b9bcbb921e12c3d9e4703908ac5a83c87ab026fb2
13cfa5bd56cba9aff45467dfc48ad2e210276349cb263cac100220ce09cd817c4d806fd2dd7478b7c92f8fed2fcee2fe09567ce345909f1925627077f1a93c51
2fd68d9e0cafe74caf1c190b424dbc46c37913cb4ce3d19b39e3a245baf7f22d6000bdca4d8cd4043370c7b33dd62bf1407bf811a74c6c60d91a28af3d1b4095
82b91180f9801f29550e84778865c18b4f2e451f944f3517b3f77db9df798f71180a9dbf309c199eb13e25b83fdd1c20d3a4e82122dfc54778865dba215fab37
328255971aaa56c29db0a9ce3d5741d5f882aa92d6241eba26f1ee446674c4492a5a7e21196ab93102fb7539169c3681bb5325a8eb90918883c266a73bf7da9c
a206f9e0616566d3c5c80f88ae471a46c6675d132b2f0c89188644257255f921ff67fc3da84e950238549a1ee1ec007a862cc77e2488bc106a9bc7b93032afd9
6f21b720b49d7476493121f6c3ac80c119c7908ce248bccb80700a5c6445ed16ae87decc350c96a93cba5491c532c48662b48b71518c2b9c6c5ff3cd6401a8e5
b2e38a5f47070ded9420eae09f2e8466c5571cd04691b9b8953b524c9786a877344e8195f80aeaeaa4c9a8b33ad1d9809e5ed3e3c34731e62758e40246741b00
e36b7d81e44c25547a4d8bab060e1ad558c9cbf7800304299ec1f98d80af0878e11094443e0ad07295636ccec501558afe75bb24c21033d9cac0eadd0d061986
45f0e4a3f56c54eae8de085b88e2b53fa64478235ce09f6dfee0b61e6da9c7336c97f448ad04661927415dcb7e46816c48a805fecaca43554f00d122bbfa9e39
36365025594266b4bb159f67da30352749180b28a1eafb6167146930603ad99f9113d4454a5cd7b4b0f6e2bed2e51bf69a593e7092a486e4b366c4f5568cc6aa
cf71318d9c522f36df5854c58993ff3e67bb6307614c1ea6d8e61323878c19f13b4291d329bc8f95a28b0b30d585b964753c5cdeb40b78af56ed1a16acd7adc0
c988c975eccb55d00083b461bcd3a8cd7f7905596450ae62e8904e92933381a24c6398a541a305e90531bca31cd7c7ef38f30be50da28d1947b4d0089c2c4a43
9eaaa1b35eb2c5170c3a3f70a67231ee20b39320a81d6c70085b16d5464666eacafeb2d52620112a96162c159e5109868968f7ca215664ebde68f8c4da30dcbe
534c36ab7841a41bd86be73500cc2673c45426157e282e1c7db86ab75fac3cd7a9b614a071b30ac74ac7bb17201acd49f236d4031756ba82cf9bb9848384bdf8
99461c2a072fbf5c5acb01045796917135b2e3d1f21843a9d7f86726bc98b85b65a710c7c40c84457d9abaa58b9687f42261a51cf0ed45f4b31c9f7afedc95de
c7f94c08a21778c7770efba65ce8649dd729f68f17437c73df2a6dea12206ad7e2b3f19105f3d3dde6866e817803a0056f4eedb92921dcdd98105803baca3cf1
cc834526a2df61cfff4503ca701aec07df6ee24f62e5e2121ce6fd9117ea1878dfbb394dc9cfe3f08762500231747685901e5253a802a302d4a7243c5594cdc1
e479cb86f26cc88e19366720540b5b5e02cf38fe55350ed9f27e3387240ba94b129142e0195240053b8436336e784fb668d170a74b75eb547c08ebfc867b97c1
dbaed56b8278bf6e351785e379040cac596afb9c00e46f2cd9f196f7154a962abf5d654abc998445a9f9dcfae8f02a6826acfa21b4a16f7060f93a1add5447f8
910301d70f931d569b3b3d67721bb545a2a0863e4638aac400f06f1008770617f9ab34cdacc20f8e772c8258b7a2a7d4d53b6f1a4362284d926278f315dd1073
64435e13532cc56b4cab36c0ffaa6e7afb77dbf1dfda987b3854c225f629330ab07a9710d43c60c076b26408215fd97f901e5253a802a302d4a7243c5594cdc1
12ccac99a6c1221d4c384b07e00642ff3fcc201dadd0f84b5d48b852db69c272f5bdbb20bad0c2285f77b40d4a6d63397cbf1747df0fe1b73fe09064cc1c9c16
4ee78644e5c69456275785abb393d737cf7b01e2f4dde04f84e8b35fc770f9c3261d6864ea2a5eebf283b0e3371c04a86f4eedb92921dcdd98105803baca3cf1
816bfad22bd1f9e0682d03371bb7d58b1ea756339213569c1f11afdde5ea9118b9e1e043acdee36d56fc60e3a8f7ad630f2751769f19c86c1495a4ad2a80e24a
f72f08b6fca6545ac69d6a1100afe493eedd499e4691cb23e06cebd1ea4e2dfbe5b3aff9760d65e6133960eb923936f240844f3e135c6daca7ab94a7fca002d4
fea01cfced7a19c4c64f03b745f7b27f96f087ded97c843e732b541c3e4f65d4cb2b61ca2955613d1518a616e380e152ca76b2136a11b7e6361c6589ba21c080
1749bb1987a90582a0bfd68692873f0a5098e31bfc4b607d80dde3df192018486e42f53866bac1625ecc89aaca67c2ec2af9366fe30a4b34a8b41356e67f70b6
cc3018140d8af1211aac2e3b7f87c8d0d5df5cb63594a22beff679f081fe52219069877f74f38fff547edfd9953c7ca91d2b99de63b2bcf0afe4d91a5a19fa8c
1aa2951d618ae89ec84c2c3ce41e2b5a96f087ded97c843e732b541c3e4f65d4305a07a15cac32d5a1682cc315e04b04e273951a0d37c5f6a33ebec625a493a3
6be76f5d36f49d03ea32abfaeeda46a3c37913cb4ce3d19b39e3a245baf7f22d6000bdca4d8cd4043370c7b33dd62bf1407bf811a74c6c60d91a28af3d1b4095
473427055b6cd90e407515c4e9fa393345be245d1a672f4f7f50a376c2fe7d4922568ff85e212f10d1797aba752cf82fb825200184bd3c6920eab0e30fd73201
bec384cd59ac5b14fd40c4d2c27a2c0d596afb9c00e46f2cd9f196f7154a962abf5d654abc998445a9f9dcfae8f02a6826acfa21b4a16f7060f93a1add5447f8
9aa1852b8f77f1a28d42dfc489b457a9ea9e68907ab7490ff97b5a7e2300f4d719c7908ce248bccb80700a5c6445ed1668fa3d41437ad10cb37834c48f33f83f
72a8e4a42a91017179a953cf9e0e65b9ae9d97ee331c4f8d59a508cb134c91379d368407418b51517267e69ad03a509f2261a51cf0ed45f4b31c9f7afedc95de
79a47cd79a63909c4b869cd18c1f00a08c5cd4d02a50c30dfea8e3c0fd737af9783ba81533a4574665093976f9df2c04f236d4031756ba82cf9bb9848384bdf8
8c7b26be069499733048d1d0ec032ff3b6c64310e087dacfcc3d5dc50efb6d039d5b75bf0bc4469703668dfe5008612de5e09cca8a7bc34599e418d40cf2d8ac
5a408888518f59d1a437f8275a458b0b49c45832f3c95633f1a6a3f51497ab50c67659f9de1a263466dd293f8c53a9c2f091abcbd37bf36ebf5041747130f29f
9d9913ef211a90de434681a7b3c8ce09921d25dd5162075e0a194042ad70cba1a680e42b286790bb33b3b85230d9c67b03bd26a5dd9eaf999d49f643ee318ff6
a7153f7e4b23fb46b13ed51ec280568467bb6307614c1ea6d8e61323878c19f13b4291d329bc8f95a28b0b30d585b964753c5cdeb40b78af56ed1a16acd7adc0
fc9f7b3692974cb9bb877adadd0255a9f91656eaae7ff92f4e702674c9561922320ac4622a8090f8b328d45ac082cb39ebbeb703fd03f43da8f38b5900f6562a
80c8b9314e914fae3a8fbe677f6c7f0dc9270bf387d5093aee39f8333af636f7de5ba68fbd62d9985ac2640cf6ff1760d3800aa618ea8c7e63536eaf8bece735
ac3bd82d6158ecb592db4d2827a4e28e19c7908ce248bccb80700a5c6445ed16ae87decc350c96a93cba5491c532c48662b48b71518c2b9c6c5ff3cd6401a8e5
188bbb5bd368e26063628253aa9a256d203dee8cb771e0625e7657afcfdd736af9e1d20f4eaf03c1a6da8501b5851c917f32f76bd525c2837ebf9e24eddaf3ba
47c2234b0a69ef047439240b1dff40a9794fff24c2ac1a88a2a560ebb98dd9a4de5ba68fbd62d9985ac2640cf6ff1760d3800aa618ea8c7e63536eaf8bece735
9aa1852b8f77f1a28d42dfc489b457a9bbeaaae708872083870aa714a5c8f244060f241c272e1edf10c2e29b9bcbb921e12c3d9e4703908ac5a83c87ab026fb2
5606d367b8b36e737178add5ddf365506dc041ff720b171705d1e39ce3f1891268b5358c79b029829b43b1d7dffb691458f053e781c7358ac1c5929d6f0351e1
f1f556703a1086e631148d14461d408c4cf9a4b0e44a3a70d8c501dc7550ebd3c9270bf387d5093aee39f8333af636f75b9345b302388fb16674faca28d53b82
623981a33afdd99d1534947eeb9691d3d729f68f17437c73df2a6dea12206ad7b80bf3528fb66d2d099f5684d13fb3926f4eedb92921dcdd98105803baca3cf1
fc1d6c3b4f1f066e1658af782b5dbffe5ff4eef0d6109191c3a4f182be9b25155d927418418b66ae933d2dae6c5dd6615409ceafbb23e0c8429ddca6316b99ab
13a448c090b34f5e31a98c4d93c9e337cc2879292a6797a699e0e76f2ac2ac21b0344475b898c23dd7b04ed1b3808e5a8427156f41a65553b110b542fd081bfc
8ce874cb8d436c60ba149bb9194dceb11135bf11ef46164f10894e1827b1dee753131218a8ccf94778f11f93f94f588bc92717a0a16779f818e9727fad40b4cc
854cb06f08cf8d64e2ba7f345163835aa9a5a4103f969fd01205ac618215de1ebd53d1e5a25c4d4634354c9aea2ee4753fd3ebe8b59a422811327bf360e88b0d
45ccc97d736c46548b67664f74922ce3f41a2eefced412246d331f37aed330d9de5ba68fbd62d9985ac2640cf6ff1760d3800aa618ea8c7e63536eaf8bece735
bd461dadb74b3cd8dbe054efffb33e3f060f241c272e1edf10c2e29b9bcbb921e6e32e8f74cc8cb6ff23aed05e529dfacf974c87c3ab5ea6f80cba64f5c3ea90
465593592fbca349efb6693b73fd4322e20d6a71a36ac486505f738ef5a2fea10ada7eba24280f8ae91d835266b0a70654a24773fda87360f98e2050755b9697
b10982852d5c2e2e0fb0eea92bfc2810b80d526b1d6298b8bfe50bcec608ce2e27b8b9fd04619dfc929c25f9ce760076901e5253a802a302d4a7243c5594cdc1
9e6f14e538199a0a35a7178d92f9d14ef10663f6b2f26b14fc0f9499d9a3927692a2c070675aa7bd1b612b18063007b2540cbd6733a85737aface44ded8b6271
cc3018140d8af1211aac2e3b7f87c8d0d5df5cb63594a22beff679f081fe52219069877f74f38fff547edfd9953c7ca91d2b99de63b2bcf0afe4d91a5a19fa8c
a7fce1fb85a6f677bb7b660363f36a8d9fd7e632bdfce2d4aa16c900e48b264a3bf1edded8f014db9bc1dc22bb272db88f7c1cfeb8445a8b8119cbc2c7962c40
8ebf5b24a226afdf530615ec93b76fa7f5e907afa9bff3606ed6f957b62363b7fbc454fe1ef62727452f1049470c8468447ce12a71378c85caaee3509e3f5eb8
a937d46b743738a9b539f8c118190e476b31a692b41bf4d7e4ca83bd7a99e28216121cd5441f85fc278f279ca6dc16194f7dd53e3bc6b905962da3e372923d15
ce3ccc8449dba19ec8ab6cf92ab2b68d8222499fab249d3d43f1164b7c001573571b148fb9be82b2062850967cf6fdc5dcafdc738a5298acfa1120b1614a3759
d76c2a1c1fdd9c16efc6083dfdd1cf97c17d16c2d49847cb4caf5a215eec765d8222499fab249d3d43f1164b7c0015736659925ae467b42bf3b494cc7983ed47
f42eb6558d578eebcc20da74b51443f3abf4a8624ca77eecb0ffeedd292d8b6a11c3aa6b92fb520db67c5757b76c1659ce34cd5104043e5e4ab8c5843f0516f1
da8e2bc6272bc56fb53268e99adacc6168e38514c271b0fe46fb69d93547dd4f3475978fd10b8f0d6be8da45ebe16b5dcb426ed8ccb797491ef10da1fca088ce
a8f59f46f47af6fe997b47ea371f79f1596afb9c00e46f2cd9f196f7154a962abf5d654abc998445a9f9dcfae8f02a6826acfa21b4a16f7060f93a1add5447f8
910301d70f931d569b3b3d67721bb5453906bbf5a3d3ee1ff156c2ffb06eb72e2c5d61ef021347535625beb58526865f2261a51cf0ed45f4b31c9f7afedc95de
0daf3f835cf2c490b5ed7b607e50e776ae203d3c5ac65c5cde7de3f562b1d4276d66756bdcfe6aa34c8de3e4748d59b2f236d4031756ba82cf9bb9848384bdf8
16dd00814941325fcafaad063fb1e4aa24be1d3b08a10c38ccf771e06bb714b5bec9b6c39f3646c5fdf8ecbf82f8fe7b58f053e781c7358ac1c5929d6f0351e1
80377576a65cc9bef9bf0f7e2dcb4b73ea0fbdba44c29ba138236a5bbf51a2b2a9b614a071b30ac74ac7bb17201acd49f236d4031756ba82cf9bb9848384bdf8
ba9917f6b4a504028842ce9d60bac32af632c6b0577219d7968ffcb0c6c13d67c9270bf387d5093aee39f8333af636f75b9345b302388fb16674faca28d53b82
bd98d0c06439cbc1c0fe93ea3460dde18b4de1258f2ecebd33be1fb8ee71590f06b6b741124839eef38af10d81b9c3dbd53b6f1a4362284d926278f315dd1073
0f791dd60364d03755ee7b61611e3973caf38d51bac21dd020f5e00420f9cf2d8231fc498d54dbcda79e998f66d1e60e2d3d6a2de201a3d71e20216b5976fea9
0e9df9fa7496935723ef8ecec81aa123c9270bf387d5093aee39f8333af636f7de5ba68fbd62d9985ac2640cf6ff1760d3800aa618ea8c7e63536eaf8bece735
ac3bd82d6158ecb592db4d2827a4e28e19c7908ce248bccb80700a5c6445ed16ae87decc350c96a93cba5491c532c48662b48b71518c2b9c6c5ff3cd6401a8e5