Version 4.1
SHEET 1 880 712
WIRE 32 -80 -48 -80
WIRE 128 -80 96 -80
WIRE -128 32 -208 32
WIRE -16 32 -64 32
WIRE 128 32 128 -80
WIRE 320 32 272 32
WIRE 464 32 384 32
WIRE -16 80 -16 32
WIRE 48 80 -16 80
WIRE 272 80 272 32
WIRE 272 80 208 80
WIRE -128 128 -208 128
WIRE 48 128 -64 128
WIRE 320 128 224 128
WIRE 464 128 384 128
WIRE -560 208 -560 160
WIRE 48 224 48 176
WIRE 32 304 -48 304
WIRE 128 304 128 176
WIRE 128 304 96 304
WIRE -560 336 -560 288
FLAG 48 224 0
FLAG -128 144 0
FLAG -128 48 0
FLAG 320 144 0
FLAG 320 48 0
FLAG 32 320 0
FLAG 32 -64 0
FLAG -48 -80 _PRE
IOPIN -48 -80 In
FLAG -208 32 D
IOPIN -208 32 In
FLAG -48 304 _CLR
IOPIN -48 304 In
FLAG -208 128 CLK
IOPIN -208 128 In
FLAG 464 128 _Q
IOPIN 464 128 Out
FLAG 464 32 Q
IOPIN 464 32 Out
FLAG -560 336 0
FLAG -560 160 5V
SYMBOL Digital\\dflop 128 32 R0
WINDOW 3 -119 -20 Left 2
SYMATTR Value Vhigh = 5
SYMATTR InstName A1
SYMBOL Digital\\schmtinv 32 240 R0
WINDOW 0 8 32 Left 0
WINDOW 3 27 32 Left 0
SYMATTR InstName A3
SYMATTR Value Vhigh = 5, Vlow = 0,  Vt = 2.5, Vh =1
SYMBOL Digital\\schmtbuf -128 -32 R0
WINDOW 0 33 52 Left 0
WINDOW 3 -73 33 Left 0
SYMATTR InstName A2
SYMATTR Value Vhigh = 5, Vlow = 0,  Vt = 2.5, Vh =1
SYMBOL Digital\\schmtbuf -128 64 R0
WINDOW 0 33 52 Left 0
WINDOW 3 -73 33 Left 0
SYMATTR InstName A4
SYMATTR Value Vhigh = 5, Vlow = 0,  Vt = 2.5, Vh =1
SYMBOL Digital\\schmtbuf 320 -32 R0
WINDOW 0 33 52 Left 0
WINDOW 3 -73 33 Left 0
SYMATTR InstName A5
SYMATTR Value Vhigh = 5, Vlow = 0,  Vt = 2.5, Vh =1, Td = 4.1n, Trise = 2.5n
SYMBOL Digital\\schmtbuf 320 64 R0
WINDOW 0 33 52 Left 0
WINDOW 3 -73 33 Left 0
SYMATTR InstName A6
SYMATTR Value Vhigh = 5, Vlow = 0,  Vt = 2.5, Vh =1, Td = 4.4n, Trise = 2.5n
SYMBOL Digital\\schmtinv 32 -144 R0
WINDOW 0 8 32 Left 0
WINDOW 3 27 32 Left 0
SYMATTR InstName A7
SYMATTR Value Vhigh = 5, Vlow = 0,  Vt = 2.5, Vh =1
SYMBOL voltage -560 192 R0
WINDOW 123 0 0 Left 0
WINDOW 39 0 0 Left 0
SYMATTR InstName V3
SYMATTR Value 5
